<?xml version="1.0"?>

<!--
// Copyright (C) 2011 Christoph Sommer <sommer@ccs-labs.org>
//
// Documentation for these modules is at http://veins.car2x.org/
//
// SPDX-License-Identifier: (GPL-2.0-or-later OR CC-BY-SA-4.0)
//
// This program is free software; you can redistribute it and/or modify
// it under the terms of the GNU General Public License as published by
// the Free Software Foundation; either version 2 of the License, or
// (at your option) any later version.
//
// This program is distributed in the hope that it will be useful,
// but WITHOUT ANY WARRANTY; without even the implied warranty of
// MERCHANTABILITY or FITNESS FOR A PARTICULAR PURPOSE.  See the
// GNU General Public License for more details.
//
// You should have received a copy of the GNU General Public License
// along with this program; if not, write to the Free Software
// Foundation, Inc., 59 Temple Place, Suite 330, Boston, MA  02111-1307  USA
//
// -
//
// At your option, you can also redistribute and/or modify this file
// under a
// Creative Commons Attribution-ShareAlike 4.0 International License.
//
// You should have received a copy of the license along with this
// work.  If not, see <http://creativecommons.org/licenses/by-sa/4.0/>.
-->

<!--
194 Cars leaving the Computer Science Building and campus of the University of Erlangen-Nuremberg
-->

<routes>
    <!--
    <vType id="vtype0" accel="2.6" decel="4.5" sigma="0.5" length="2.5" minGap="2.5" maxSpeed="14" color="1,1,0"/>
    <route id="route0" repeat="10" edges="-4006693#1 -23605595 -8403007 -29900564#1 -8402998#2 -8402998#1 -8402997 32270595 -29900565#3 -29900565#2 -29900565#1 -29900565#0 -4006690 -4006693#4 -4006693#3 -4006693#2" />
    <route id="route1" repeat="10" edges="-8402997 32270595 -29900565#3 -29900565#2 -29900565#1 -29900565#0 -4006690 -4006693#4 -4006693#3 -4006693#2 -4006693#1 -23605595 -8403007 -29900564#1 -8402998#2 -8402998#1" />
    <flow id="flow0" type="vtype0" route="route0" begin="0" period="3" number="5"/>
    <flow id="flow1" type="vtype0" route="route1" begin="0" period="3" number="5"/>

    <vType id="vtype0" accel="2.6" decel="4.5" sigma="0.5" length="2.5" minGap="2.5" maxSpeed="1" color="1,1,0"/>
    <route id="route0" repeat="10" edges="-4006693#1 -23605595 -8403007 -29900564#1 -8402998#2 -8402998#1 -8402997 32270595 -29900565#3 -29900565#2 -29900565#1 -29900565#0 -4006690 -4006693#4 -4006693#3 -4006693#2" />
    <route id="route1" repeat="10" edges="-4006693#3 -4006693#2 -4006693#1 -23605595 -8403007 -29900564#1 -8402998#2 -8402998#1 -8402997 32270595 -29900565#3 -29900565#2 -29900565#1 -29900565#0 -4006690 -4006693#4" />
    <flow id="flow0" type="vtype0" route="route0" begin="0" period="3" number="5"/>
    <flow id="flow1" type="vtype0" route="route1" begin="0" period="3" number="5"/>
    -->
    <vehicle id="0.0" depart="0.00" departPos="random" departSpeed="max">
        <route edges="31241851#1 -31241851#1 31261347 -31261347 -31241851#0 31241816#3 31241835#1 -31241835#1 -31241835#0 31241835#0 31241835#1 31241834#0 31241834#1 31241855#0 31241855#1 -31241853#0 31241853#0 -31241855#1 31241855#1 -31241853#0 31241853#0 -31241855#1 31241816#0 -31241838#1 -31241853#1 31241853#1 -31241853#1 31241853#1 31241853#2 31241851#2 -31255203#0 4006702#1 4006702#2 4006701 -4006701 4006701 -4006701 -28269598 -4006703#1 -4006705#0 4006705#0 4006705#1 -4006705#1 -4006705#0 4006705#0 -4006703#0 4006703#0 4006703#1 -4006703#1 -4006705#0 4006705#0 4006703#1 -4006703#1 4006705#1 -4006705#1 4006705#1 4006705#2 31720632#0 31720632#1 -31720632#1 31720632#1 -31720632#1 31720633 -31720633 31720632#1 -31720632#1 31720633 -31720633 31720632#1 -31720632#1 31720632#1 -31720632#1 31720633 -31720633 -31720632#0 -4006705#2 -4006705#1 4006703#1 28269598 -23805514#1 -23805514#0 23805514#0 23805514#1 -4006702#2 4900043 4900041#1 -23350929 23350929 4900041#2 4900041#3 4900041#0 -4900043 4900043 4900041#1 -23350929 23350929 4900041#2 4900041#3 4900041#0 -4900043 -4006702#1 31255203#0 -31241851#2 31241851#2 31255203#1 -31255203#1 -31255203#0 28613737 94344941 28768072 -28613737 31255203#0 -31241851#2 31241851#2 31255203#1 -31255203#1 -31241851#2 -31241851#1 -31241851#0 31241851#0" repeat="4"/>
    </vehicle>
</routes>
