<?xml version="1.0" encoding="UTF-8"?>

<!-- generated on 2023-07-25 19:08:06 by Eclipse SUMO netedit Version 1.14.1
-->

<additional xmlns:xsi="http://www.w3.org/2001/XMLSchema-instance" xsi:noNamespaceSchemaLocation="http://sumo.dlr.de/xsd/additional_file.xsd">
    <!-- Shapes -->
    <poly id="-146876" type="building" color="red" fill="1" layer="2.00" shape="4832.240000,6082.070000 4872.510000,6078.280000 4876.190000,6108.740000 4835.920000,6112.530000 4832.240000,6082.070000"/>
    <poly id="-146878" type="building" color="red" fill="1" layer="2.00" shape="4815.600000,6166.730000 4786.370000,6175.240000 4789.640000,6186.410000 4818.860000,6177.900000 4815.600000,6166.730000"/>
    <poly id="-146884" type="building" color="red" fill="1" layer="2.00" shape="4514.380000,5782.310000 4533.570000,5818.040000 4544.090000,5812.410000 4522.810000,5772.810000 4515.760000,5776.580000 4517.840000,5780.460000 4514.380000,5782.310000"/>
    <poly id="-146888" type="building" color="red" fill="1" layer="2.00" shape="5701.080000,6540.000000 5706.950000,6529.160000 5708.590000,6530.050000 5710.300000,6526.900000 5715.800000,6529.870000 5714.140000,6532.930000 5718.000000,6535.010000 5717.570000,6535.820000 5719.190000,6536.690000 5716.160000,6542.310000 5714.620000,6541.480000 5712.190000,6545.980000 5701.080000,6540.000000"/>
    <poly id="-146890" type="building" color="red" fill="1" layer="2.00" shape="6302.140000,6697.390000 6307.610000,6729.080000 6318.040000,6727.290000 6313.410000,6700.480000 6316.950000,6699.870000 6316.020000,6694.490000 6302.140000,6697.390000"/>
    <poly id="-146898" type="building" color="red" fill="1" layer="2.00" shape="5310.410000,6490.100000 5310.200000,6498.920000 5317.910000,6499.110000 5317.820000,6502.780000 5322.490000,6502.890000 5322.790000,6490.390000 5310.410000,6490.100000"/>
    <poly id="-146902" type="building" color="red" fill="1" layer="2.00" shape="4889.400000,6958.970000 4890.730000,6970.380000 4902.600000,6969.010000 4901.290000,6957.590000 4889.400000,6958.970000"/>
    <poly id="-146904" type="building" color="red" fill="1" layer="2.00" shape="4865.830000,6245.620000 4871.070000,6275.200000 4883.230000,6273.060000 4878.000000,6243.470000 4865.830000,6245.620000"/>
    <poly id="-146914" type="building" color="red" fill="1" layer="2.00" shape="7232.900000,6937.920000 7227.760000,6937.400000 7225.280000,6950.140000 7230.450000,6951.160000 7232.900000,6937.920000"/>
    <poly id="-146926" type="building" color="red" fill="1" layer="2.00" shape="4926.430000,6781.460000 4944.490000,6782.870000 4945.450000,6770.540000 4927.390000,6769.150000 4926.430000,6781.460000"/>
    <poly id="-146930" type="building" color="red" fill="1" layer="2.00" shape="6677.310000,7390.490000 6690.750000,7378.430000 6694.580000,7378.330000 6697.960000,7380.820000 6697.590000,7385.020000 6683.670000,7397.100000 6677.310000,7390.490000"/>
    <poly id="-146932" type="building" color="red" fill="1" layer="2.00" shape="7554.540000,5244.740000 7553.960000,5244.210000 7551.250000,5247.560000 7543.440000,5257.980000 7547.820000,5261.280000 7556.950000,5269.780000 7563.060000,5262.610000 7569.010000,5255.300000 7554.540000,5244.740000"/>
    <poly id="-146944" type="building" color="red" fill="1" layer="2.00" shape="5631.990000,5217.090000 5643.650000,5206.410000 5638.550000,5200.870000 5645.420000,5194.580000 5650.200000,5199.770000 5662.990000,5188.060000 5630.770000,5153.080000 5599.440000,5181.760000 5631.990000,5217.090000"/>
    <poly id="-146946" type="building" color="red" fill="1" layer="2.00" shape="4477.580000,5830.500000 4487.970000,5837.250000 4471.100000,5863.110000 4460.700000,5856.370000 4477.580000,5830.500000"/>
    <poly id="-146950" type="building" color="red" fill="1" layer="2.00" shape="5449.880000,7650.590000 5467.650000,7666.930000 5475.340000,7658.620000 5457.580000,7642.270000 5449.880000,7650.590000"/>
    <poly id="-146952" type="building" color="red" fill="1" layer="2.00" shape="5461.110000,6561.620000 5465.210000,6563.590000 5469.850000,6565.710000 5470.450000,6570.050000 5482.170000,6567.200000 5480.950000,6560.340000 5478.480000,6557.140000 5466.210000,6550.290000 5461.110000,6561.620000"/>
    <poly id="-146964" type="building" color="red" fill="1" layer="2.00" shape="5755.900000,6399.630000 5786.570000,6414.010000 5792.340000,6401.790000 5765.110000,6389.010000 5763.670000,6392.070000 5760.230000,6390.470000 5755.900000,6399.630000"/>
    <poly id="-146966" type="building" color="red" fill="1" layer="2.00" shape="7443.560000,6138.820000 7442.280000,6133.460000 7461.770000,6126.380000 7463.110000,6132.210000 7443.560000,6138.820000"/>
    <poly id="-146972" type="building" color="red" fill="1" layer="2.00" shape="5652.980000,5135.110000 5647.050000,5144.220000 5666.500000,5156.840000 5672.450000,5147.730000 5652.980000,5135.110000"/>
    <poly id="-146976" type="building" color="red" fill="1" layer="2.00" shape="7190.000000,7063.950000 7191.170000,7078.800000 7192.680000,7084.520000 7196.070000,7084.240000 7197.050000,7098.080000 7203.200000,7097.570000 7202.560000,7083.670000 7201.380000,7064.550000 7199.720000,7063.410000 7195.150000,7063.840000 7190.000000,7063.950000"/>
    <poly id="-146982" type="building" color="red" fill="1" layer="2.00" shape="6920.010000,4860.750000 6913.080000,4867.590000 6904.400000,4881.710000 6913.280000,4886.990000 6929.970000,4863.390000 6929.730000,4856.330000 6928.450000,4854.530000 6920.010000,4860.750000"/>
    <poly id="-146988" type="building" color="red" fill="1" layer="2.00" shape="5265.390000,6333.470000 5259.950000,6332.940000 5258.480000,6347.600000 5258.340000,6348.950000 5271.250000,6350.230000 5271.350000,6349.230000 5277.880000,6349.880000 5278.990000,6338.840000 5279.830000,6338.920000 5280.230000,6334.950000 5265.390000,6333.470000"/>
    <poly id="-146994" type="building" color="red" fill="1" layer="2.00" shape="5374.740000,7634.820000 5353.710000,7637.740000 5355.320000,7649.320000 5376.350000,7646.420000 5374.740000,7634.820000"/>
    <poly id="-147010" type="building" color="red" fill="1" layer="2.00" shape="6509.960000,5051.550000 6522.270000,5060.370000 6534.380000,5067.260000 6546.330000,5073.070000 6557.990000,5077.570000 6563.400000,5064.220000 6550.430000,5060.010000 6539.700000,5054.630000 6527.310000,5046.670000 6518.350000,5040.140000 6509.960000,5051.550000"/>
    <poly id="-147028" type="building" color="red" fill="1" layer="2.00" shape="6056.230000,6823.640000 6057.980000,6837.150000 6084.030000,6833.780000 6082.270000,6820.260000 6056.230000,6823.640000"/>
    <poly id="-147030" type="building" color="red" fill="1" layer="2.00" shape="6539.330000,4940.190000 6566.130000,4975.440000 6586.560000,4960.100000 6583.920000,4957.430000 6594.250000,4949.430000 6587.160000,4940.450000 6580.480000,4932.020000 6568.710000,4917.130000 6556.910000,4926.400000 6539.330000,4940.190000"/>
    <poly id="-147032" type="building" color="red" fill="1" layer="2.00" shape="7515.480000,7043.120000 7521.050000,7038.370000 7510.160000,7027.110000 7504.850000,7035.290000 7515.480000,7043.120000"/>
    <poly id="-147034" type="building" color="red" fill="1" layer="2.00" shape="7387.670000,6205.930000 7389.200000,6212.230000 7376.190000,6215.200000 7367.000000,6217.300000 7355.790000,6219.850000 7354.440000,6213.880000 7387.670000,6205.930000"/>
    <poly id="-147052" type="building" color="red" fill="1" layer="2.00" shape="5541.380000,5250.260000 5544.130000,5253.110000 5547.550000,5249.830000 5544.800000,5246.980000 5541.380000,5250.260000"/>
    <poly id="-147058" type="building" color="red" fill="1" layer="2.00" shape="7111.720000,7072.010000 7114.320000,7097.580000 7117.880000,7097.230000 7115.370000,7071.760000 7111.720000,7072.010000"/>
    <poly id="-147062" type="building" color="red" fill="1" layer="2.00" shape="5740.400000,6869.040000 5741.210000,6883.890000 5764.600000,6882.610000 5763.780000,6867.760000 5740.400000,6869.040000"/>
    <poly id="-147066" type="building" color="red" fill="1" layer="2.00" shape="6931.850000,7277.960000 6938.360000,7269.540000 6923.880000,7258.420000 6918.690000,7265.140000 6921.810000,7267.540000 6920.500000,7269.250000 6931.850000,7277.960000"/>
    <poly id="-147068" type="building" color="red" fill="1" layer="2.00" shape="6989.680000,4962.390000 6987.990000,4960.950000 6983.910000,4965.700000 6985.790000,4967.300000 6974.880000,4983.160000 6991.970000,4994.850000 7001.130000,4981.540000 7003.580000,4983.730000 7009.950000,4976.640000 7007.570000,4974.500000 7017.360000,4964.090000 7001.760000,4949.520000 6989.680000,4962.390000"/>
    <poly id="-147074" type="building" color="red" fill="1" layer="2.00" shape="6260.590000,6224.260000 6276.300000,6233.690000 6281.440000,6225.190000 6272.630000,6219.910000 6275.010000,6215.970000 6268.100000,6211.820000 6260.590000,6224.260000"/>
    <poly id="-147076" type="building" color="red" fill="1" layer="2.00" shape="5442.060000,6722.230000 5426.560000,6718.420000 5428.420000,6710.900000 5443.920000,6714.710000 5442.060000,6722.230000"/>
    <poly id="-147080" type="building" color="red" fill="1" layer="2.00" shape="6240.970000,6713.700000 6244.000000,6703.540000 6242.010000,6702.960000 6244.330000,6695.200000 6250.020000,6696.900000 6252.110000,6689.880000 6241.760000,6686.820000 6245.810000,6673.260000 6234.350000,6669.860000 6226.290000,6696.880000 6230.270000,6698.050000 6228.270000,6704.770000 6233.280000,6706.240000 6231.860000,6710.990000 6240.970000,6713.700000"/>
    <poly id="-147082" type="building" color="red" fill="1" layer="2.00" shape="7400.460000,7663.530000 7409.990000,7663.170000 7409.430000,7648.320000 7399.890000,7648.680000 7400.460000,7663.530000"/>
    <poly id="-147096" type="building" color="red" fill="1" layer="2.00" shape="5151.600000,7610.340000 5212.530000,7594.100000 5224.300000,7622.330000 5164.070000,7637.210000 5151.600000,7610.340000"/>
    <poly id="-147102" type="building" color="red" fill="1" layer="2.00" shape="5869.330000,5210.040000 5877.700000,5213.710000 5881.840000,5204.380000 5875.440000,5200.820000 5869.330000,5210.040000"/>
    <poly id="-147104" type="building" color="red" fill="1" layer="2.00" shape="6239.490000,5997.120000 6247.530000,6005.620000 6276.890000,5977.990000 6268.850000,5969.490000 6254.820000,5982.680000 6239.490000,5997.120000"/>
    <poly id="-147106" type="building" color="red" fill="1" layer="2.00" shape="6619.280000,5102.170000 6622.930000,5113.390000 6663.950000,5100.110000 6660.300000,5088.900000 6619.280000,5102.170000"/>
    <poly id="-147112" type="building" color="red" fill="1" layer="2.00" shape="5045.510000,6461.140000 5058.630000,6462.540000 5059.660000,6452.850000 5075.120000,6454.500000 5076.880000,6438.110000 5059.000000,6436.210000 5057.920000,6446.280000 5047.230000,6445.140000 5045.510000,6461.140000"/>
    <poly id="-147118" type="building" color="red" fill="1" layer="2.00" shape="4630.100000,7751.410000 4649.560000,7739.480000 4654.860000,7748.080000 4658.140000,7746.080000 4692.930000,7802.520000 4668.340000,7817.580000 4638.610000,7769.340000 4633.660000,7761.330000 4635.510000,7760.200000 4630.100000,7751.410000"/>
    <poly id="-147120" type="building" color="red" fill="1" layer="2.00" shape="6489.380000,5238.700000 6486.440000,5226.500000 6468.990000,5230.700000 6468.540000,5228.140000 6452.900000,5232.010000 6453.500000,5235.250000 6457.710000,5252.560000 6490.830000,5244.720000 6489.380000,5238.700000"/>
    <poly id="-147122" type="building" color="red" fill="1" layer="2.00" shape="7376.020000,7049.340000 7374.330000,7045.130000 7372.560000,7040.730000 7379.840000,7037.800000 7381.910000,7042.970000 7383.310000,7046.420000 7376.020000,7049.340000"/>
    <poly id="-147124" type="building" color="red" fill="1" layer="2.00" shape="6097.680000,6783.310000 6099.430000,6798.060000 6127.500000,6794.740000 6126.100000,6782.950000 6107.970000,6785.090000 6107.610000,6782.130000 6097.680000,6783.310000"/>
    <poly id="-147130" type="building" color="red" fill="1" layer="2.00" shape="4702.760000,5937.300000 4664.380000,5952.020000 4669.930000,5964.670000 4707.910000,5949.460000 4702.760000,5937.300000"/>
    <poly id="-147144" type="building" color="red" fill="1" layer="2.00" shape="5269.160000,6459.690000 5260.780000,6458.950000 5259.790000,6469.970000 5268.180000,6470.700000 5269.160000,6459.690000"/>
    <poly id="-147158" type="building" color="red" fill="1" layer="2.00" shape="5537.080000,6427.780000 5527.220000,6452.060000 5533.710000,6454.710000 5543.590000,6442.820000 5547.530000,6432.000000 5537.080000,6427.780000"/>
    <poly id="-147164" type="building" color="red" fill="1" layer="2.00" shape="5475.610000,6268.350000 5477.810000,6269.400000 5474.610000,6276.090000 5462.560000,6270.350000 5465.770000,6263.660000 5475.610000,6268.350000"/>
    <poly id="-147180" type="building" color="red" fill="1" layer="2.00" shape="6641.470000,5577.920000 6649.090000,5578.770000 6649.570000,5569.020000 6642.690000,5567.740000 6641.470000,5577.920000"/>
    <poly id="-147184" type="building" color="red" fill="1" layer="2.00" shape="6399.200000,5813.800000 6409.450000,5808.270000 6402.550000,5795.570000 6392.300000,5801.090000 6399.200000,5813.800000"/>
    <poly id="-147190" type="building" color="red" fill="1" layer="2.00" shape="5414.360000,5526.620000 5416.760000,5531.570000 5427.980000,5526.160000 5429.880000,5530.070000 5447.820000,5521.400000 5443.520000,5512.530000 5414.360000,5526.620000"/>
    <poly id="-147202" type="building" color="red" fill="1" layer="2.00" shape="5079.040000,7030.260000 5111.670000,7030.950000 5111.930000,7019.120000 5079.290000,7018.420000 5079.040000,7030.260000"/>
    <poly id="-147206" type="building" color="red" fill="1" layer="2.00" shape="7141.670000,6857.840000 7146.410000,6857.980000 7149.020000,6858.060000 7151.680000,6858.130000 7155.940000,6858.260000 7157.300000,6858.300000 7156.830000,6835.920000 7151.350000,6835.920000 7146.560000,6835.900000 7141.950000,6835.880000 7141.670000,6857.840000"/>
    <poly id="-147228" type="building" color="red" fill="1" layer="2.00" shape="7055.140000,5582.190000 7069.070000,5582.880000 7068.580000,5572.700000 7068.110000,5563.030000 7054.350000,5565.030000 7055.140000,5582.190000"/>
    <poly id="-147232" type="building" color="red" fill="1" layer="2.00" shape="5431.310000,4794.480000 5446.420000,4801.060000 5444.610000,4805.190000 5449.150000,4807.170000 5446.030000,4814.300000 5463.230000,4821.790000 5467.480000,4812.090000 5477.810000,4816.590000 5472.200000,4829.400000 5461.750000,4824.850000 5455.600000,4838.890000 5438.680000,4831.530000 5432.820000,4844.930000 5422.810000,4840.550000 5418.870000,4861.940000 5411.420000,4860.690000 5416.040000,4839.190000 5414.280000,4838.420000 5414.850000,4835.480000 5398.880000,4830.240000 5402.540000,4818.710000 5425.930000,4826.640000 5433.470000,4809.380000 5426.180000,4806.210000 5431.310000,4794.480000"/>
    <poly id="-147242" type="building" color="red" fill="1" layer="2.00" shape="5523.920000,6769.340000 5533.370000,6755.650000 5521.570000,6747.550000 5512.120000,6761.240000 5523.920000,6769.340000"/>
    <poly id="-147246" type="building" color="red" fill="1" layer="2.00" shape="4824.550000,6020.340000 4824.910000,6028.180000 4837.680000,6027.590000 4837.320000,6019.760000 4824.550000,6020.340000"/>
    <poly id="-147250" type="building" color="red" fill="1" layer="2.00" shape="5289.790000,5083.980000 5286.580000,5086.880000 5288.780000,5089.320000 5291.990000,5086.420000 5289.790000,5083.980000"/>
    <poly id="-147256" type="building" color="red" fill="1" layer="2.00" shape="6020.880000,6912.910000 6020.750000,6940.920000 6029.820000,6940.950000 6029.940000,6912.950000 6020.880000,6912.910000"/>
    <poly id="-147258" type="building" color="red" fill="1" layer="2.00" shape="6570.260000,5451.440000 6676.770000,5455.770000 6677.860000,5434.000000 6571.160000,5429.490000 6570.260000,5451.440000"/>
    <poly id="-147266" type="building" color="red" fill="1" layer="2.00" shape="5632.380000,6042.210000 5679.240000,6039.890000 5679.030000,6033.940000 5725.460000,6032.230000 5725.470000,6043.690000 5688.070000,6044.910000 5688.720000,6057.460000 5688.830000,6060.220000 5703.700000,6059.650000 5704.130000,6072.240000 5654.760000,6073.550000 5642.540000,6095.590000 5632.240000,6090.450000 5638.680000,6077.560000 5634.220000,6075.330000 5626.370000,6086.960000 5620.750000,6083.440000 5615.820000,6078.280000 5611.840000,6071.800000 5609.870000,6065.130000 5608.770000,6058.000000 5632.940000,6055.680000 5632.380000,6042.210000"/>
    <poly id="-147276" type="building" color="red" fill="1" layer="2.00" shape="5734.830000,7011.240000 5735.690000,7024.710000 5764.620000,7022.860000 5764.890000,7026.930000 5775.380000,7026.260000 5774.250000,7008.720000 5734.830000,7011.240000"/>
    <poly id="-147284" type="building" color="red" fill="1" layer="2.00" shape="6831.670000,7076.490000 6831.600000,7074.120000 6837.020000,7074.340000 6836.810000,7063.890000 6842.390000,7063.480000 6841.660000,7055.340000 6820.300000,7056.890000 6821.240000,7077.670000 6831.670000,7076.490000"/>
    <poly id="-147286" type="building" color="red" fill="1" layer="2.00" shape="6240.390000,5051.750000 6242.460000,5066.140000 6246.820000,5065.520000 6248.030000,5073.930000 6241.240000,5074.910000 6240.780000,5071.690000 6234.000000,5072.660000 6231.180000,5053.060000 6240.390000,5051.750000"/>
    <poly id="-147292" type="building" color="red" fill="1" layer="2.00" shape="7425.250000,5903.640000 7470.560000,5914.590000 7473.090000,5906.670000 7425.660000,5894.830000 7425.250000,5903.640000"/>
    <poly id="-147300" type="building" color="red" fill="1" layer="2.00" shape="4463.860000,6116.830000 4471.570000,6117.250000 4472.080000,6107.630000 4464.380000,6107.220000 4463.860000,6116.830000"/>
    <poly id="-147308" type="building" color="red" fill="1" layer="2.00" shape="5633.110000,6665.750000 5643.950000,6674.470000 5668.630000,6643.980000 5657.780000,6635.260000 5633.110000,6665.750000"/>
    <poly id="-147312" type="building" color="red" fill="1" layer="2.00" shape="7155.020000,7031.400000 7161.790000,7030.940000 7162.340000,7038.670000 7166.660000,7038.390000 7165.790000,7022.970000 7171.860000,7022.720000 7171.970000,7025.180000 7179.560000,7024.440000 7179.270000,7019.200000 7161.140000,7018.460000 7154.150000,7018.770000 7155.020000,7031.400000"/>
    <poly id="-147318" type="building" color="red" fill="1" layer="2.00" shape="4915.910000,6450.410000 4914.310000,6441.740000 4929.060000,6439.030000 4930.660000,6447.690000 4915.910000,6450.410000"/>
    <poly id="-147320" type="building" color="red" fill="1" layer="2.00" shape="7335.480000,7700.360000 7337.900000,7712.540000 7347.110000,7710.720000 7344.690000,7698.530000 7335.480000,7700.360000"/>
    <poly id="-147322" type="building" color="red" fill="1" layer="2.00" shape="6519.260000,5607.060000 6554.790000,5606.560000 6554.390000,5618.530000 6518.650000,5619.050000 6519.260000,5607.060000"/>
    <poly id="-147342" type="building" color="red" fill="1" layer="2.00" shape="5612.990000,5897.790000 5644.210000,5896.590000 5644.810000,5912.230000 5613.590000,5913.430000 5612.990000,5897.790000"/>
    <poly id="-147344" type="building" color="red" fill="1" layer="2.00" shape="6575.260000,7648.790000 6583.030000,7656.040000 6589.910000,7648.710000 6593.660000,7652.210000 6598.150000,7647.420000 6586.520000,7637.070000 6575.260000,7648.790000"/>
    <poly id="-147352" type="building" color="red" fill="1" layer="2.00" shape="4608.750000,6198.920000 4598.600000,6170.320000 4595.440000,6142.850000 4606.880000,6141.610000 4609.360000,6156.100000 4611.660000,6154.630000 4615.410000,6166.110000 4610.630000,6166.380000 4612.280000,6173.010000 4621.670000,6195.210000 4608.750000,6198.920000"/>
    <poly id="-147354" type="building" color="red" fill="1" layer="2.00" shape="6941.370000,6144.180000 6976.180000,6053.640000 6982.210000,6055.950000 6988.780000,6058.460000 6953.970000,6148.980000 6941.370000,6144.180000"/>
    <poly id="-147356" type="building" color="red" fill="1" layer="2.00" shape="7291.040000,6951.390000 7293.340000,6941.030000 7299.840000,6941.860000 7297.810000,6952.590000 7291.040000,6951.390000"/>
    <poly id="-147384" type="building" color="red" fill="1" layer="2.00" shape="5488.090000,6731.280000 5493.660000,6723.910000 5506.100000,6732.170000 5500.880000,6740.200000 5488.090000,6731.280000"/>
    <poly id="-147388" type="building" color="red" fill="1" layer="2.00" shape="4649.700000,6470.080000 4664.720000,6473.620000 4666.090000,6467.840000 4651.070000,6464.310000 4649.700000,6470.080000"/>
    <poly id="-147390" type="building" color="red" fill="1" layer="2.00" shape="7172.350000,7147.370000 7172.920000,7160.590000 7167.450000,7160.960000 7166.730000,7147.670000 7172.350000,7147.370000"/>
    <poly id="-147394" type="building" color="red" fill="1" layer="2.00" shape="5287.730000,6598.150000 5283.050000,6604.910000 5292.060000,6611.140000 5296.020000,6605.440000 5296.760000,6604.380000 5287.730000,6598.150000"/>
    <poly id="-147398" type="building" color="red" fill="1" layer="2.00" shape="5138.940000,5970.300000 5130.330000,5950.540000 5115.480000,5957.440000 5114.550000,5955.160000 5096.550000,5962.890000 5101.620000,5986.360000 5138.940000,5970.300000"/>
    <poly id="-147426" type="building" color="red" fill="1" layer="2.00" shape="5382.510000,6336.110000 5385.390000,6340.360000 5386.780000,6339.430000 5387.930000,6341.120000 5397.870000,6334.420000 5393.850000,6328.480000 5382.510000,6336.110000"/>
    <poly id="-147430" type="building" color="red" fill="1" layer="2.00" shape="4866.040000,7230.880000 4866.980000,7241.910000 4882.370000,7240.600000 4881.430000,7229.570000 4866.040000,7230.880000"/>
    <poly id="-147432" type="building" color="red" fill="1" layer="2.00" shape="4891.500000,6195.500000 4905.770000,6194.510000 4903.060000,6155.090000 4889.680000,6156.000000 4890.270000,6164.550000 4892.550000,6164.400000 4893.030000,6171.420000 4889.860000,6171.640000 4891.500000,6195.500000"/>
    <poly id="-147434" type="building" color="red" fill="1" layer="2.00" shape="7462.370000,6728.230000 7456.040000,6728.240000 7456.010000,6716.420000 7462.340000,6716.400000 7462.360000,6724.370000 7462.370000,6728.230000"/>
    <poly id="-147436" type="building" color="red" fill="1" layer="2.00" shape="7190.380000,7098.540000 7190.820000,7105.020000 7196.100000,7104.720000 7195.600000,7098.200000 7193.680000,7098.300000 7190.380000,7098.540000"/>
    <poly id="-147438" type="building" color="red" fill="1" layer="2.00" shape="5834.370000,7649.540000 5845.720000,7666.100000 5853.540000,7660.780000 5842.200000,7644.220000 5834.370000,7649.540000"/>
    <poly id="-147446" type="building" color="red" fill="1" layer="2.00" shape="6754.770000,4733.470000 6748.210000,4728.740000 6754.270000,4720.320000 6760.840000,4725.010000 6754.770000,4733.470000"/>
    <poly id="-147454" type="building" color="red" fill="1" layer="2.00" shape="6027.480000,6640.820000 6065.530000,6626.420000 6060.160000,6612.400000 6021.990000,6628.890000 6027.480000,6640.820000"/>
    <poly id="-147464" type="building" color="red" fill="1" layer="2.00" shape="7325.360000,6836.550000 7368.130000,6836.910000 7359.660000,6861.390000 7359.030000,6862.450000 7358.020000,6863.170000 7356.810000,6863.410000 7326.040000,6863.300000 7325.360000,6836.550000"/>
    <poly id="-147468" type="building" color="red" fill="1" layer="2.00" shape="6688.390000,5978.000000 6687.200000,5965.700000 6677.330000,5966.640000 6675.970000,5952.500000 6691.010000,5951.060000 6693.550000,5977.510000 6688.390000,5978.000000"/>
    <poly id="-147472" type="building" color="red" fill="1" layer="2.00" shape="7311.310000,7494.290000 7326.170000,7498.310000 7328.770000,7488.740000 7313.920000,7484.720000 7311.310000,7494.290000"/>
    <poly id="-147474" type="building" color="red" fill="1" layer="2.00" shape="7363.110000,5951.400000 7375.010000,5953.890000 7380.120000,5945.060000 7367.300000,5942.540000 7363.110000,5951.400000"/>
    <poly id="-147484" type="building" color="red" fill="1" layer="2.00" shape="6282.720000,7013.790000 6285.150000,7031.430000 6303.800000,7028.870000 6301.360000,7011.210000 6282.720000,7013.790000"/>
    <poly id="-147486" type="building" color="red" fill="1" layer="2.00" shape="7309.950000,6061.590000 7347.240000,6054.970000 7347.560000,6039.930000 7338.630000,6041.100000 7333.210000,6042.090000 7333.580000,6044.490000 7331.820000,6044.740000 7332.240000,6048.160000 7325.330000,6050.270000 7338.500000,6025.160000 7340.860000,6020.640000 7330.960000,6014.440000 7309.950000,6061.590000"/>
    <poly id="-147496" type="building" color="red" fill="1" layer="2.00" shape="6517.130000,7719.400000 6522.570000,7712.350000 6535.930000,7722.610000 6542.750000,7727.830000 6537.320000,7734.890000 6535.470000,7733.470000 6524.910000,7725.370000 6517.130000,7719.400000"/>
    <poly id="-147498" type="building" color="red" fill="1" layer="2.00" shape="6334.920000,6371.020000 6332.520000,6350.830000 6344.700000,6349.390000 6347.100000,6369.570000 6334.920000,6371.020000"/>
    <poly id="-147500" type="building" color="red" fill="1" layer="2.00" shape="6749.440000,5630.630000 6748.760000,5622.300000 6748.600000,5620.270000 6742.660000,5621.580000 6743.000000,5623.240000 6742.660000,5625.680000 6740.870000,5636.430000 6739.710000,5643.070000 6749.440000,5643.000000 6749.820000,5635.330000 6749.440000,5630.630000"/>
    <poly id="-147504" type="building" color="red" fill="1" layer="2.00" shape="7088.870000,6950.820000 7088.420000,6943.470000 7095.860000,6944.250000 7098.830000,6944.560000 7098.610000,6946.000000 7098.320000,6947.880000 7103.260000,6947.610000 7103.520000,6950.020000 7088.870000,6950.820000"/>
    <poly id="-147506" type="building" color="red" fill="1" layer="2.00" shape="6887.910000,6631.300000 6878.270000,6643.020000 6860.200000,6628.260000 6865.430000,6621.910000 6871.120000,6626.550000 6875.540000,6621.180000 6887.910000,6631.300000"/>
    <poly id="-147512" type="building" color="red" fill="1" layer="2.00" shape="5788.160000,6380.410000 5799.420000,6386.050000 5806.150000,6372.740000 5794.900000,6367.080000 5788.160000,6380.410000"/>
    <poly id="-147520" type="building" color="red" fill="1" layer="2.00" shape="5470.480000,6352.080000 5474.600000,6343.930000 5463.060000,6338.110000 5458.940000,6346.270000 5470.480000,6352.080000"/>
    <poly id="-147522" type="building" color="red" fill="1" layer="2.00" shape="5671.060000,7540.100000 5671.820000,7544.970000 5678.720000,7543.890000 5677.950000,7539.020000 5671.060000,7540.100000"/>
    <poly id="-147530" type="building" color="red" fill="1" layer="2.00" shape="6977.150000,4870.490000 6983.820000,4875.700000 6992.300000,4864.920000 6985.640000,4859.700000 6977.150000,4870.490000"/>
    <poly id="-147538" type="building" color="red" fill="1" layer="2.00" shape="5756.080000,7668.210000 5757.510000,7672.360000 5766.130000,7669.430000 5764.700000,7665.260000 5756.080000,7668.210000"/>
    <poly id="-147544" type="building" color="red" fill="1" layer="2.00" shape="6856.960000,6396.770000 6851.240000,6401.310000 6856.910000,6408.420000 6852.640000,6411.820000 6850.040000,6408.550000 6845.650000,6412.040000 6848.100000,6415.110000 6842.660000,6419.420000 6839.550000,6415.530000 6841.800000,6413.740000 6835.000000,6405.220000 6832.930000,6406.870000 6828.190000,6400.930000 6833.550000,6396.670000 6835.730000,6399.400000 6839.270000,6396.610000 6837.080000,6393.870000 6841.460000,6390.390000 6845.760000,6395.790000 6852.150000,6390.730000 6856.960000,6396.770000"/>
    <poly id="-147560" type="building" color="red" fill="1" layer="2.00" shape="5219.340000,6522.800000 5218.010000,6530.310000 5222.220000,6531.050000 5221.830000,6533.290000 5230.070000,6534.740000 5231.790000,6524.990000 5219.340000,6522.800000"/>
    <poly id="-147572" type="building" color="red" fill="1" layer="2.00" shape="7167.760000,7203.160000 7178.040000,7202.830000 7190.120000,7202.030000 7189.850000,7199.540000 7188.940000,7190.670000 7186.450000,7190.830000 7176.890000,7191.440000 7174.710000,7191.580000 7169.620000,7191.910000 7166.570000,7192.230000 7167.760000,7203.160000"/>
    <poly id="-147580" type="building" color="red" fill="1" layer="2.00" shape="5101.090000,6371.280000 5109.890000,6372.250000 5111.510000,6357.730000 5102.710000,6356.750000 5101.090000,6371.280000"/>
    <poly id="-147586" type="building" color="red" fill="1" layer="2.00" shape="4497.470000,7673.000000 4487.550000,7648.620000 4470.440000,7655.560000 4480.370000,7679.930000 4497.470000,7673.000000"/>
    <poly id="-147590" type="building" color="red" fill="1" layer="2.00" shape="6509.920000,7138.110000 6513.640000,7136.950000 6514.730000,7139.430000 6521.390000,7136.220000 6515.410000,7119.910000 6523.160000,7117.080000 6518.740000,7105.050000 6503.410000,7110.650000 6504.500000,7113.650000 6499.130000,7115.610000 6509.920000,7138.110000"/>
    <poly id="-147594" type="building" color="red" fill="1" layer="2.00" shape="5656.380000,6427.870000 5661.600000,6435.790000 5654.040000,6440.980000 5644.170000,6436.590000 5645.480000,6430.220000 5650.030000,6430.820000 5655.430000,6426.870000 5656.380000,6427.870000"/>
    <poly id="-147598" type="building" color="red" fill="1" layer="2.00" shape="5344.350000,6395.380000 5349.900000,6396.030000 5351.360000,6383.450000 5345.810000,6382.800000 5344.350000,6395.380000"/>
    <poly id="-147614" type="building" color="red" fill="1" layer="2.00" shape="5250.890000,6602.590000 5249.550000,6601.710000 5247.180000,6605.270000 5248.660000,6606.250000 5246.610000,6609.310000 5256.780000,6616.070000 5261.210000,6609.450000 5250.890000,6602.590000"/>
    <poly id="-147616" type="building" color="red" fill="1" layer="2.00" shape="6252.350000,7525.080000 6261.680000,7529.310000 6266.230000,7519.340000 6257.470000,7515.370000 6252.350000,7525.080000"/>