<?xml version="1.0" encoding="UTF-8"?>

<!-- generated on 2023-07-25 19:08:06 by Eclipse SUMO netedit Version 1.14.1
<configuration xmlns:xsi="http://www.w3.org/2001/XMLSchema-instance" xsi:noNamespaceSchemaLocation="http://sumo.dlr.de/xsd/netconvertConfiguration.xsd">

    <input>
        <sumo-net-file value="lust.net.xml"/>
    </input>

    <output>
        <output-file value="lust.net.xml"/>
    </output>

    <processing>
        <geometry.min-radius.fix.railways value="false"/>
        <geometry.max-grade.fix value="false"/>
        <offset.disable-normalization value="true"/>
        <lefthand value="false"/>
    </processing>

    <junctions>
        <no-turnarounds value="true"/>
        <junctions.corner-detail value="0"/>
        <junctions.limit-turn-speed value="-1"/>
        <rectangular-lane-cut value="false"/>
    </junctions>

    <pedestrian>
        <walkingareas value="false"/>
    </pedestrian>

    <netedit>
        <additional-files value="/Users/luizfrf/Documents/Master/lust.poly.xml"/>
    </netedit>

</configuration>
-->

<net version="1.9" xmlns:xsi="http://www.w3.org/2001/XMLSchema-instance" xsi:noNamespaceSchemaLocation="http://sumo.dlr.de/xsd/net_file.xsd">

    <location netOffset="-285448.66,-5492398.13" convBoundary="3776.21,4573.59,7880.82,8021.94" origBoundary="6.030969,49.549099,6.216758,49.652578" projParameter="+proj=utm +zone=32 +ellps=WGS84 +datum=WGS84 +units=m +no_defs"/>

    <edge id=":-1000_0" function="internal">
        <lane id=":-1000_0_0" index="0" speed="16.67" length="13.94" shape="7328.97,7160.77 7327.22,7174.52"/>
        <lane id=":-1000_0_1" index="1" speed="16.67" length="13.94" shape="7325.80,7160.30 7324.03,7174.20"/>
    </edge>
    <edge id=":-1000_2" function="internal">
        <lane id=":-1000_2_0" index="0" speed="15.28" length="3.26" shape="7325.80,7160.30 7324.68,7163.36"/>
    </edge>
    <edge id=":-1000_7" function="internal">
        <lane id=":-1000_7_0" index="0" speed="15.28" length="13.45" shape="7324.68,7163.36 7324.53,7163.79 7321.91,7166.17 7317.95,7167.42 7312.65,7167.56"/>
    </edge>
    <edge id=":-1000_3" function="internal">
        <lane id=":-1000_3_0" index="0" speed="15.28" length="9.30" shape="7312.87,7164.37 7315.46,7164.21 7317.42,7163.32 7318.76,7161.70 7319.47,7159.36"/>
    </edge>
    <edge id=":-1000_4" function="internal">
        <lane id=":-1000_4_0" index="0" speed="15.28" length="17.09" shape="7312.87,7164.37 7318.22,7165.31 7321.87,7167.26 7323.80,7170.23 7324.03,7174.20"/>
    </edge>
    <edge id=":-1000_5" function="internal">
        <lane id=":-1000_5_0" index="0" speed="15.28" length="9.07" shape="7317.66,7173.57 7317.64,7171.09 7316.80,7169.27 7315.13,7168.09 7312.65,7167.56"/>
    </edge>
    <edge id=":-1000_6" function="internal">
        <lane id=":-1000_6_0" index="0" speed="16.67" length="14.17" shape="7320.84,7173.89 7322.64,7159.83"/>
    </edge>
    <edge id=":-1004_0" function="internal">
        <lane id=":-1004_0_0" index="0" speed="13.89" length="3.47" shape="7314.74,6254.62 7314.26,6253.71 7313.88,6253.11 7313.43,6252.57 7312.72,6251.84"/>
    </edge>
    <edge id=":-10052_0" function="internal">
        <lane id=":-10052_0_0" index="0" speed="13.89" length="11.13" shape="5549.53,7347.20 5538.43,7346.38"/>
    </edge>
    <edge id=":-10052_1" function="internal">
        <lane id=":-10052_1_0" index="0" speed="13.89" length="2.44" shape="5549.53,7347.20 5547.20,7346.46"/>
    </edge>
    <edge id=":-10052_4" function="internal">
        <lane id=":-10052_4_0" index="0" speed="13.89" length="9.31" shape="5547.20,7346.46 5545.59,7344.66 5544.68,7341.81 5544.48,7337.91"/>
    </edge>
    <edge id=":-10052_2" function="internal">
        <lane id=":-10052_2_0" index="0" speed="13.89" length="9.03" shape="5538.64,7343.18 5541.12,7342.99 5542.92,7342.05 5544.04,7340.36 5544.48,7337.91"/>
    </edge>
    <edge id=":-10052_3" function="internal">
        <lane id=":-10052_3_0" index="0" speed="13.89" length="11.18" shape="5538.64,7343.18 5549.79,7344.01"/>
    </edge>
    <edge id=":-1010_0" function="internal">
        <lane id=":-1010_0_0" index="0" speed="13.89" length="13.98" shape="7084.14,4834.97 7074.89,4845.45"/>
    </edge>
    <edge id=":-1010_1" function="internal">
        <lane id=":-1010_1_0" index="0" speed="13.89" length="3.81" shape="7084.14,4834.97 7081.18,4837.37"/>
    </edge>
    <edge id=":-1010_6" function="internal">
        <lane id=":-1010_6_0" index="0" speed="13.89" length="10.15" shape="7081.18,4837.37 7078.15,4838.27 7075.04,4837.68 7071.84,4835.59"/>
    </edge>
    <edge id=":-1010_2" function="internal">
        <lane id=":-1010_2_0" index="0" speed="13.89" length="8.90" shape="7073.96,4833.18 7075.99,4834.52 7077.97,4834.89 7079.91,4834.32 7081.79,4832.79"/>
    </edge>
    <edge id=":-1010_3" function="internal">
        <lane id=":-1010_3_0" index="0" speed="13.89" length="13.96" shape="7073.96,4833.18 7076.44,4836.08 7077.42,4839.09 7076.91,4842.21 7074.89,4845.45"/>
    </edge>
    <edge id=":-1010_4" function="internal">
        <lane id=":-1010_4_0" index="0" speed="13.89" length="8.88" shape="7072.44,4843.40 7073.72,4841.33 7074.05,4839.35 7073.42,4837.43 7071.84,4835.59"/>
    </edge>
    <edge id=":-1010_5" function="internal">
        <lane id=":-1010_5_0" index="0" speed="13.89" length="14.14" shape="7072.44,4843.40 7081.79,4832.79"/>
    </edge>
    <edge id=":-10130_0" function="internal">
        <lane id=":-10130_0_0" index="0" speed="13.89" length="21.00" shape="4977.65,7638.92 4972.83,7640.69 4968.96,7643.70 4966.03,7647.93 4964.05,7653.40"/>
    </edge>
    <edge id=":-10130_1" function="internal">
        <lane id=":-10130_1_0" index="0" speed="13.89" length="29.08" shape="4977.65,7638.92 4949.85,7646.48"/>
        <lane id=":-10130_1_1" index="1" speed="13.89" length="29.08" shape="4976.96,7635.79 4948.90,7643.42"/>
        <lane id=":-10130_1_2" index="2" speed="13.89" length="29.08" shape="4976.28,7632.66 4947.95,7640.36"/>
    </edge>
    <edge id=":-10130_4" function="internal">
        <lane id=":-10130_4_0" index="0" speed="13.89" length="3.28" shape="4976.28,7632.66 4973.00,7632.81"/>
    </edge>
    <edge id=":-10130_16" function="internal">
        <lane id=":-10130_16_0" index="0" speed="13.89" length="20.46" shape="4973.00,7632.81 4970.19,7632.94 4965.76,7630.73 4962.97,7626.05 4961.82,7618.89"/>
    </edge>
    <edge id=":-10130_5" function="internal">
        <lane id=":-10130_5_0" index="0" speed="13.89" length="9.05" shape="4968.22,7618.64 4968.68,7621.15 4969.83,7622.76 4971.68,7623.47 4974.22,7623.29"/>
    </edge>
    <edge id=":-10130_6" function="internal">
        <lane id=":-10130_6_0" index="0" speed="13.89" length="34.19" shape="4965.02,7618.77 4964.88,7626.91 4964.03,7635.81 4962.65,7644.65 4960.94,7652.63"/>
    </edge>
    <edge id=":-10130_7" function="internal">
        <lane id=":-10130_7_0" index="0" speed="13.89" length="7.21" shape="4965.02,7618.77 4964.21,7625.93"/>
    </edge>
    <edge id=":-10130_17" function="internal">
        <lane id=":-10130_17_0" index="0" speed="13.89" length="22.66" shape="4964.21,7625.93 4964.19,7626.16 4961.06,7632.23 4955.65,7636.96 4947.95,7640.36"/>
    </edge>
    <edge id=":-10130_8" function="internal">
        <lane id=":-10130_8_0" index="0" speed="13.89" length="19.50" shape="4945.11,7631.20 4951.14,7628.83 4955.40,7626.01 4957.90,7622.74 4958.63,7619.01"/>
    </edge>
    <edge id=":-10130_9" function="internal">
        <lane id=":-10130_9_0" index="0" speed="13.89" length="29.89" shape="4945.11,7631.20 4974.22,7623.29"/>
        <lane id=":-10130_9_1" index="1" speed="13.89" length="29.89" shape="4946.06,7634.25 4974.91,7626.41"/>
        <lane id=":-10130_9_2" index="2" speed="13.89" length="29.89" shape="4947.01,7637.31 4975.59,7629.54"/>
    </edge>
    <edge id=":-10130_12" function="internal">
        <lane id=":-10130_12_0" index="0" speed="13.89" length="3.97" shape="4947.01,7637.31 4950.96,7636.97"/>
    </edge>
    <edge id=":-10130_18" function="internal">
        <lane id=":-10130_18_0" index="0" speed="13.89" length="22.55" shape="4950.96,7636.97 4954.21,7636.69 4959.14,7639.50 4961.48,7645.05 4960.94,7652.63"/>
    </edge>
    <edge id=":-10130_13" function="internal">
        <lane id=":-10130_13_0" index="0" speed="13.89" length="9.26" shape="4954.73,7651.09 4955.05,7648.31 4954.34,7646.62 4952.60,7646.01 4949.85,7646.48"/>
    </edge>
    <edge id=":-10130_14" function="internal">
        <lane id=":-10130_14_0" index="0" speed="13.89" length="33.30" shape="4957.84,7651.86 4959.53,7644.02 4960.88,7635.48 4961.70,7626.89 4961.82,7618.89"/>
    </edge>
    <edge id=":-10130_15" function="internal">
        <lane id=":-10130_15_0" index="0" speed="13.89" length="6.22" shape="4957.84,7651.86 4959.82,7645.96"/>
    </edge>
    <edge id=":-10130_19" function="internal">
        <lane id=":-10130_19_0" index="0" speed="13.89" length="23.81" shape="4959.82,7645.96 4960.76,7643.16 4964.70,7636.53 4969.64,7632.00 4975.59,7629.54"/>
    </edge>
    <edge id=":-10158_0" function="internal">
        <lane id=":-10158_0_0" index="0" speed="13.89" length="14.43" shape="6672.23,4906.02 6666.39,4892.82"/>
    </edge>
    <edge id=":-10158_1" function="internal">
        <lane id=":-10158_1_0" index="0" speed="13.89" length="4.10" shape="6672.23,4906.02 6671.16,4902.26 6671.18,4902.07"/>
    </edge>
    <edge id=":-10158_6" function="internal">
        <lane id=":-10158_6_0" index="0" speed="13.89" length="10.14" shape="6671.18,4902.07 6671.56,4899.07 6673.42,4896.46 6676.76,4894.42"/>
    </edge>
    <edge id=":-10158_2" function="internal">
        <lane id=":-10158_2_0" index="0" speed="13.89" length="9.03" shape="6678.02,4897.36 6675.91,4898.65 6674.72,4900.31 6674.47,4902.33 6675.15,4904.71"/>
    </edge>
    <edge id=":-10158_3" function="internal">
        <lane id=":-10158_3_0" index="0" speed="13.89" length="14.22" shape="6678.02,4897.36 6674.26,4898.38 6671.06,4897.97 6668.44,4896.11 6666.39,4892.82"/>
    </edge>
    <edge id=":-10158_4" function="internal">
        <lane id=":-10158_4_0" index="0" speed="13.89" length="9.08" shape="6669.32,4891.53 6670.63,4893.63 6672.30,4894.81 6674.35,4895.07 6676.76,4894.42"/>
    </edge>
    <edge id=":-10158_5" function="internal">
        <lane id=":-10158_5_0" index="0" speed="13.89" length="14.41" shape="6669.32,4891.53 6675.15,4904.71"/>
    </edge>
    <edge id=":-10168_0" function="internal">
        <lane id=":-10168_0_0" index="0" speed="13.89" length="3.65" shape="5721.86,7369.86 5722.12,7370.91 5722.38,7371.61 5722.76,7372.24 5723.41,7373.11"/>
    </edge>
    <edge id=":-10168_1" function="internal">
        <lane id=":-10168_1_0" index="0" speed="13.89" length="5.18" shape="5719.45,7375.71 5719.49,7374.18 5719.38,7373.13 5719.13,7372.10 5718.75,7370.61"/>
    </edge>
    <edge id=":-10168_2" function="internal">
        <lane id=":-10168_2_0" index="0" speed="13.89" length="3.41" shape="5719.45,7375.71 5719.86,7372.85 5720.13,7372.40"/>
    </edge>
    <edge id=":-10168_3" function="internal">
        <lane id=":-10168_3_0" index="0" speed="13.89" length="4.46" shape="5720.13,7372.40 5720.66,7371.47 5721.84,7371.55 5723.41,7373.11"/>
    </edge>
    <edge id=":-10290_0" function="internal">
        <lane id=":-10290_0_0" index="0" speed="13.89" length="9.03" shape="6257.72,6537.14 6256.66,6534.89 6255.14,6533.55 6253.16,6533.11 6250.71,6533.59"/>
    </edge>
    <edge id=":-10290_1" function="internal">
        <lane id=":-10290_1_0" index="0" speed="13.89" length="20.52" shape="6257.72,6537.14 6255.68,6529.31 6254.98,6523.48 6255.62,6519.66 6257.59,6517.84"/>
        <lane id=":-10290_1_1" index="1" speed="13.89" length="17.54" shape="6257.72,6537.14 6256.09,6530.65 6255.69,6525.78 6256.51,6522.53 6258.54,6520.89"/>
    </edge>
    <edge id=":-10290_3" function="internal">
        <lane id=":-10290_3_0" index="0" speed="13.89" length="11.36" shape="6261.40,6530.06 6250.71,6533.59"/>
        <lane id=":-10290_3_1" index="1" speed="13.89" length="11.36" shape="6260.45,6527.00 6249.66,6530.57"/>
        <lane id=":-10290_3_2" index="2" speed="13.89" length="11.36" shape="6259.49,6523.95 6248.61,6527.55"/>
    </edge>
    <edge id=":-10290_6" function="internal">
        <lane id=":-10290_6_0" index="0" speed="13.89" length="11.68" shape="6245.45,6518.48 6256.64,6514.78"/>
        <lane id=":-10290_6_1" index="1" speed="13.89" length="11.68" shape="6246.50,6521.50 6257.59,6517.84"/>
        <lane id=":-10290_6_2" index="2" speed="13.89" length="11.68" shape="6247.55,6524.52 6258.54,6520.89"/>
    </edge>
    <edge id=":-10438_0" function="internal">
        <lane id=":-10438_0_0" index="0" speed="15.28" length="10.03" shape="6822.44,6892.47 6819.44,6892.36 6817.17,6893.08 6815.63,6894.61 6814.82,6896.95"/>
    </edge>
    <edge id=":-10438_1" function="internal">
        <lane id=":-10438_1_0" index="0" speed="13.89" length="15.47" shape="6822.44,6892.47 6807.08,6889.92"/>
        <lane id=":-10438_1_1" index="1" speed="13.89" length="15.47" shape="6822.92,6889.30 6807.65,6886.78"/>
        <lane id=":-10438_1_2" index="2" speed="13.89" length="15.47" shape="6823.40,6886.14 6808.22,6883.63"/>
    </edge>
    <edge id=":-10438_4" function="internal">
        <lane id=":-10438_4_0" index="0" speed="15.28" length="9.04" shape="6820.62,6870.19 6820.32,6872.69 6820.92,6874.60 6822.43,6875.92 6824.84,6876.65"/>
    </edge>
    <edge id=":-10438_5" function="internal">
        <lane id=":-10438_5_0" index="0" speed="16.67" length="27.72" shape="6817.53,6869.35 6815.74,6876.27 6814.23,6882.82 6812.89,6889.40 6811.66,6896.44"/>
    </edge>
    <edge id=":-10438_6" function="internal">
        <lane id=":-10438_6_0" index="0" speed="15.28" length="21.00" shape="6817.53,6869.35 6815.06,6877.31 6812.59,6882.87 6810.12,6886.02 6807.65,6886.78"/>
        <lane id=":-10438_6_1" index="1" speed="15.28" length="18.13" shape="6817.53,6869.35 6815.41,6875.95 6813.16,6880.53 6810.76,6883.09 6808.22,6883.63"/>
    </edge>
    <edge id=":-10438_8" function="internal">
        <lane id=":-10438_8_0" index="0" speed="13.89" length="15.20" shape="6809.94,6874.18 6824.84,6876.65"/>
        <lane id=":-10438_8_1" index="1" speed="13.89" length="15.20" shape="6809.37,6877.33 6824.36,6879.81"/>
        <lane id=":-10438_8_2" index="2" speed="13.89" length="15.20" shape="6808.79,6880.48 6823.88,6882.98"/>
    </edge>
    <edge id=":-10438_11" function="internal">
        <lane id=":-10438_11_0" index="0" speed="15.28" length="2.00" shape="6808.79,6880.48 6810.49,6881.54"/>
    </edge>
    <edge id=":-10438_12" function="internal">
        <lane id=":-10438_12_0" index="0" speed="15.28" length="15.43" shape="6810.49,6881.54 6810.97,6881.84 6812.17,6884.95 6812.40,6889.82 6811.66,6896.44"/>
    </edge>
    <edge id=":-10458_0" function="internal">
        <lane id=":-10458_0_0" index="0" speed="13.89" length="10.46" shape="6970.95,5969.83 6968.61,5968.99 6966.39,5969.27 6964.28,5970.67 6962.29,5973.18"/>
    </edge>
    <edge id=":-10458_1" function="internal">
        <lane id=":-10458_1_0" index="0" speed="13.89" length="11.86" shape="6970.95,5969.83 6968.03,5968.41 6965.48,5967.57 6962.93,5966.73 6960.01,5965.32"/>
    </edge>
    <edge id=":-10458_2" function="internal">
        <lane id=":-10458_2_0" index="0" speed="13.89" length="7.05" shape="6970.95,5969.83 6969.02,5968.17 6968.01,5965.97 6967.94,5963.88"/>
    </edge>
    <edge id=":-10458_5" function="internal">
        <lane id=":-10458_5_0" index="0" speed="13.89" length="4.01" shape="6967.94,5963.88 6967.92,5963.24 6968.76,5959.98"/>
    </edge>
    <edge id=":-10458_3" function="internal">
        <lane id=":-10458_3_0" index="0" speed="13.89" length="9.05" shape="6961.62,5962.55 6963.98,5963.50 6965.96,5963.39 6967.55,5962.21 6968.76,5959.98"/>
    </edge>
    <edge id=":-10458_4" function="internal">
        <lane id=":-10458_4_0" index="0" speed="13.89" length="2.57" shape="6961.62,5962.55 6963.54,5964.26"/>
    </edge>
    <edge id=":-10458_6" function="internal">
        <lane id=":-10458_6_0" index="0" speed="13.89" length="9.56" shape="6963.54,5964.26 6963.68,5964.39 6964.48,5966.78 6964.02,5969.71 6962.29,5973.18"/>
    </edge>
    <edge id=":-1046_0" function="internal">
        <lane id=":-1046_0_0" index="0" speed="13.89" length="9.12" shape="7194.19,7233.68 7191.74,7233.36 7189.76,7233.90 7188.25,7235.32 7187.21,7237.62"/>
    </edge>
    <edge id=":-1046_1" function="internal">
        <lane id=":-1046_1_0" index="0" speed="13.89" length="14.45" shape="7194.19,7233.68 7180.28,7229.85"/>
        <lane id=":-1046_1_1" index="1" speed="13.89" length="14.45" shape="7195.07,7230.61 7181.11,7226.76"/>
    </edge>
    <edge id=":-1046_3" function="internal">
        <lane id=":-1046_3_0" index="0" speed="13.89" length="14.56" shape="7182.75,7220.58 7196.82,7224.45"/>
        <lane id=":-1046_3_1" index="1" speed="13.89" length="14.56" shape="7181.93,7223.67 7195.94,7227.53"/>
    </edge>
    <edge id=":-1046_5" function="internal">
        <lane id=":-1046_5_0" index="0" speed="13.89" length="3.81" shape="7181.93,7223.67 7185.36,7225.33"/>
    </edge>
    <edge id=":-1046_8" function="internal">
        <lane id=":-1046_8_0" index="0" speed="13.89" length="13.18" shape="7185.36,7225.33 7185.52,7225.41 7187.60,7228.31 7188.16,7232.38 7187.21,7237.62"/>
    </edge>
    <edge id=":-1046_6" function="internal">
        <lane id=":-1046_6_0" index="0" speed="13.89" length="9.03" shape="7184.14,7236.72 7184.50,7234.26 7183.97,7232.29 7182.57,7230.83 7180.28,7229.85"/>
    </edge>
    <edge id=":-1046_7" function="internal">
        <lane id=":-1046_7_0" index="0" speed="13.89" length="16.90" shape="7184.14,7236.72 7186.15,7231.80 7188.79,7228.63 7192.06,7227.21 7195.94,7227.53"/>
    </edge>
    <edge id=":-10476_0" function="internal">
        <lane id=":-10476_0_0" index="0" speed="13.89" length="9.04" shape="6146.60,7683.01 6145.95,7680.59 6144.68,7679.03 6142.79,7678.32 6140.29,7678.46"/>
    </edge>
    <edge id=":-10476_1" function="internal">
        <lane id=":-10476_1_0" index="0" speed="13.89" length="20.81" shape="6146.60,7683.01 6145.80,7674.71 6145.67,7668.55 6146.23,7664.53 6147.47,7662.65"/>
        <lane id=":-10476_1_1" index="1" speed="13.89" length="18.34" shape="6146.60,7683.01 6146.04,7676.16 6146.25,7670.96 6147.21,7667.40 6148.94,7665.49"/>
    </edge>
    <edge id=":-10476_3" function="internal">
        <lane id=":-10476_3_0" index="0" speed="13.89" length="12.98" shape="6153.34,7674.02 6149.67,7675.86 6147.05,7676.91 6144.32,7677.63 6140.29,7678.46"/>
        <lane id=":-10476_3_1" index="1" speed="13.89" length="12.98" shape="6151.87,7671.18 6148.43,7672.89 6145.99,7673.88 6143.43,7674.55 6139.66,7675.32"/>
        <lane id=":-10476_3_2" index="2" speed="13.89" length="12.98" shape="6150.41,7668.34 6147.20,7669.93 6144.92,7670.85 6142.53,7671.47 6139.02,7672.19"/>
    </edge>
    <edge id=":-10476_6" function="internal">
        <lane id=":-10476_6_0" index="0" speed="13.89" length="10.31" shape="6137.12,7662.78 6139.86,7662.22 6141.72,7661.75 6143.51,7661.04 6146.01,7659.80"/>
        <lane id=":-10476_6_1" index="1" speed="13.89" length="10.31" shape="6137.75,7665.91 6140.75,7665.31 6142.79,7664.78 6144.74,7664.01 6147.47,7662.65"/>
        <lane id=":-10476_6_2" index="2" speed="13.89" length="10.31" shape="6138.39,7669.05 6141.64,7668.39 6143.85,7667.81 6145.97,7666.97 6148.94,7665.49"/>
    </edge>
    <edge id=":-10518_0" function="internal">
        <lane id=":-10518_0_0" index="0" speed="13.89" length="22.26" shape="7250.53,5513.35 7228.64,5515.64"/>
        <lane id=":-10518_0_1" index="1" speed="13.89" length="22.26" shape="7250.25,5510.16 7228.11,5512.49"/>
        <lane id=":-10518_0_2" index="2" speed="13.89" length="22.26" shape="7249.96,5506.97 7227.59,5509.33"/>
    </edge>
    <edge id=":-10518_3" function="internal">
        <lane id=":-10518_3_0" index="0" speed="13.89" length="3.07" shape="7249.96,5506.97 7246.92,5506.56"/>
    </edge>
    <edge id=":-10518_11" function="internal">
        <lane id=":-10518_11_0" index="0" speed="13.89" length="23.62" shape="7246.92,5506.56 7242.77,5506.01 7238.54,5502.13 7237.48,5496.14 7239.80,5488.88"/>
    </edge>
    <edge id=":-10518_4" function="internal">
        <lane id=":-10518_4_0" index="0" speed="13.89" length="9.31" shape="7245.45,5491.89 7244.45,5494.54 7244.72,5496.34 7246.28,5497.30 7249.10,5497.41"/>
    </edge>
    <edge id=":-10518_5" function="internal">
        <lane id=":-10518_5_0" index="0" speed="13.89" length="26.62" shape="7242.62,5490.38 7237.40,5499.87 7233.23,5506.71 7230.14,5510.92 7228.11,5512.49"/>
        <lane id=":-10518_5_1" index="1" speed="13.89" length="24.63" shape="7242.62,5490.38 7238.08,5498.34 7234.05,5504.14 7230.56,5507.81 7227.59,5509.33"/>
    </edge>
    <edge id=":-10518_7" function="internal">
        <lane id=":-10518_7_0" index="0" speed="13.89" length="17.01" shape="7226.01,5499.86 7228.47,5498.78 7231.12,5496.34 7233.95,5492.54 7236.98,5487.37"/>
    </edge>
    <edge id=":-10518_8" function="internal">
        <lane id=":-10518_8_0" index="0" speed="13.89" length="22.98" shape="7226.01,5499.86 7249.10,5497.41"/>
        <lane id=":-10518_8_1" index="1" speed="13.89" length="22.98" shape="7226.54,5503.02 7249.39,5500.60"/>
        <lane id=":-10518_8_2" index="2" speed="13.89" length="22.98" shape="7227.06,5506.17 7249.68,5503.78"/>
    </edge>
    <edge id=":-10564_0" function="internal">
        <lane id=":-10564_0_0" index="0" speed="13.89" length="8.68" shape="5391.08,5470.96 5389.00,5471.23 5387.17,5472.09 5385.59,5473.54 5384.27,5475.57"/>
    </edge>
    <edge id=":-10564_1" function="internal">
        <lane id=":-10564_1_0" index="0" speed="13.89" length="12.29" shape="5391.08,5470.96 5387.77,5470.73 5385.04,5470.06 5382.50,5468.85 5379.71,5467.00"/>
    </edge>
    <edge id=":-10564_2" function="internal">
        <lane id=":-10564_2_0" index="0" speed="13.89" length="10.38" shape="5381.58,5464.40 5384.08,5466.15 5385.99,5467.16 5388.08,5467.63 5391.11,5467.76"/>
    </edge>
    <edge id=":-10564_3" function="internal">
        <lane id=":-10564_3_0" index="0" speed="13.89" length="3.42" shape="5381.58,5464.40 5384.05,5466.76"/>
    </edge>
    <edge id=":-10564_6" function="internal">
        <lane id=":-10564_6_0" index="0" speed="13.89" length="9.29" shape="5384.05,5466.76 5385.33,5469.40 5385.40,5472.34 5384.27,5475.57"/>
    </edge>
    <edge id=":-10564_4" function="internal">
        <lane id=":-10564_4_0" index="0" speed="13.89" length="8.09" shape="5381.43,5474.11 5382.14,5472.05 5382.10,5470.19 5381.29,5468.50 5379.71,5467.00"/>
    </edge>
    <edge id=":-10564_5" function="internal">
        <lane id=":-10564_5_0" index="0" speed="13.89" length="12.23" shape="5381.43,5474.11 5383.26,5471.31 5385.49,5469.32 5388.10,5468.14 5391.11,5467.76"/>
    </edge>
    <edge id=":-10588_0" function="internal">
        <lane id=":-10588_0_0" index="0" speed="13.89" length="12.99" shape="5584.98,7196.74 5583.44,7193.31 5581.46,7190.73 5579.04,7188.99 5576.17,7188.11"/>
    </edge>
    <edge id=":-10588_1" function="internal">
        <lane id=":-10588_1_0" index="0" speed="13.89" length="16.87" shape="5584.98,7196.74 5583.89,7192.84 5583.12,7188.50 5582.79,7184.12 5583.00,7180.10"/>
    </edge>
    <edge id=":-10588_2" function="internal">
        <lane id=":-10588_2_0" index="0" speed="13.89" length="16.28" shape="5584.98,7196.74 5584.05,7192.00 5585.02,7188.78 5587.89,7187.08 5592.64,7186.89"/>
    </edge>
    <edge id=":-10588_3" function="internal">
        <lane id=":-10588_3_0" index="0" speed="13.89" length="9.26" shape="5592.33,7190.07 5589.63,7190.18 5588.02,7191.16 5587.48,7193.00 5588.01,7195.70"/>
    </edge>
    <edge id=":-10588_4" function="internal">
        <lane id=":-10588_4_0" index="0" speed="13.89" length="16.27" shape="5592.33,7190.07 5576.17,7188.11"/>
    </edge>
    <edge id=":-10588_5" function="internal">
        <lane id=":-10588_5_0" index="0" speed="13.89" length="5.09" shape="5592.33,7190.07 5587.77,7189.05 5587.42,7188.82"/>
    </edge>
    <edge id=":-10588_16" function="internal">
        <lane id=":-10588_16_0" index="0" speed="13.89" length="10.60" shape="5587.42,7188.82 5584.70,7187.05 5583.11,7184.07 5583.00,7180.10"/>
    </edge>
    <edge id=":-10588_6" function="internal">
        <lane id=":-10588_6_0" index="0" speed="13.89" length="10.38" shape="5586.17,7180.55 5586.28,7183.05 5587.39,7184.94 5589.51,7186.22 5592.64,7186.89"/>
    </edge>
    <edge id=":-10588_7" function="internal">
        <lane id=":-10588_7_0" index="0" speed="13.89" length="15.39" shape="5586.17,7180.55 5585.93,7184.34 5586.22,7188.21 5586.94,7192.04 5588.01,7195.70"/>
    </edge>
    <edge id=":-10588_8" function="internal">
        <lane id=":-10588_8_0" index="0" speed="13.89" length="4.20" shape="5586.17,7180.55 5585.07,7184.35 5584.91,7184.54"/>
    </edge>
    <edge id=":-10588_17" function="internal">
        <lane id=":-10588_17_0" index="0" speed="13.89" length="10.11" shape="5584.91,7184.54 5583.04,7186.87 5580.07,7188.12 5576.17,7188.11"/>
    </edge>
    <edge id=":-10588_9" function="internal">
        <lane id=":-10588_9_0" index="0" speed="13.89" length="9.13" shape="5576.65,7184.94 5579.12,7184.95 5581.01,7184.15 5582.30,7182.53 5583.00,7180.10"/>
    </edge>
    <edge id=":-10588_10" function="internal">
        <lane id=":-10588_10_0" index="0" speed="13.89" length="16.12" shape="5576.65,7184.94 5592.64,7186.89"/>
    </edge>
    <edge id=":-10588_11" function="internal">
        <lane id=":-10588_11_0" index="0" speed="13.89" length="3.91" shape="5576.65,7184.94 5580.39,7186.07"/>
    </edge>
    <edge id=":-10588_18" function="internal">
        <lane id=":-10588_18_0" index="0" speed="13.89" length="12.58" shape="5580.39,7186.07 5583.54,7188.24 5586.08,7191.45 5588.01,7195.70"/>
    </edge>
    <edge id=":-10588_12" function="internal">
        <lane id=":-10588_12_0" index="0" speed="13.89" length="10.72" shape="5578.86,7196.22 5580.14,7193.04 5580.13,7190.62 5578.80,7188.98 5576.17,7188.11"/>
    </edge>
    <edge id=":-10588_13" function="internal">
        <lane id=":-10588_13_0" index="0" speed="13.89" length="16.72" shape="5578.86,7196.22 5580.41,7192.54 5581.56,7188.37 5582.39,7184.09 5583.00,7180.10"/>
    </edge>
    <edge id=":-10588_14" function="internal">
        <lane id=":-10588_14_0" index="0" speed="13.89" length="8.54" shape="5578.86,7196.22 5581.79,7191.83 5584.19,7189.62"/>
    </edge>
    <edge id=":-10588_15" function="internal">
        <lane id=":-10588_15_0" index="0" speed="13.89" length="8.34" shape="5578.86,7196.22 5581.58,7192.23 5584.01,7190.82 5584.63,7191.15"/>
    </edge>
    <edge id=":-10588_19" function="internal">
        <lane id=":-10588_19_0" index="0" speed="13.89" length="9.14" shape="5584.19,7189.62 5585.07,7188.81 5588.68,7187.16 5592.64,7186.89"/>
    </edge>
    <edge id=":-10588_20" function="internal">
        <lane id=":-10588_20_0" index="0" speed="13.89" length="5.90" shape="5584.63,7191.15 5586.15,7191.98 5588.01,7195.70"/>
    </edge>
    <edge id=":-10632_0" function="internal">
        <lane id=":-10632_0_0" index="0" speed="13.89" length="16.26" shape="5337.00,5582.06 5333.25,5580.84 5329.41,5579.17 5325.74,5577.16 5322.49,5574.93"/>
    </edge>
    <edge id=":-10632_1" function="internal">
        <lane id=":-10632_1_0" index="0" speed="13.89" length="4.81" shape="5337.00,5582.06 5333.06,5580.40 5332.71,5580.00"/>
    </edge>
    <edge id=":-10632_6" function="internal">
        <lane id=":-10632_6_0" index="0" speed="13.89" length="10.28" shape="5332.71,5580.00 5330.90,5577.94 5330.51,5574.70 5331.90,5570.65"/>
    </edge>
    <edge id=":-10632_2" function="internal">
        <lane id=":-10632_2_0" index="0" speed="13.89" length="9.06" shape="5334.75,5572.11 5333.91,5574.54 5334.15,5576.49 5335.45,5577.97 5337.81,5578.96"/>
    </edge>
    <edge id=":-10632_3" function="internal">
        <lane id=":-10632_3_0" index="0" speed="13.89" length="15.05" shape="5334.75,5572.11 5332.29,5575.60 5329.42,5577.23 5326.16,5577.00 5322.49,5574.93"/>
    </edge>
    <edge id=":-10632_4" function="internal">
        <lane id=":-10632_4_0" index="0" speed="13.89" length="9.15" shape="5324.46,5572.40 5326.68,5573.66 5328.66,5573.78 5330.40,5572.78 5331.90,5570.65"/>
    </edge>
    <edge id=":-10632_5" function="internal">
        <lane id=":-10632_5_0" index="0" speed="13.89" length="14.98" shape="5324.46,5572.40 5327.53,5574.54 5330.80,5576.36 5334.24,5577.83 5337.81,5578.96"/>
    </edge>
    <edge id=":-10820_0" function="internal">
        <lane id=":-10820_0_0" index="0" speed="13.89" length="14.54" shape="5975.91,7373.75 5961.88,7377.68"/>
        <lane id=":-10820_0_1" index="1" speed="13.89" length="14.54" shape="5975.03,7370.68 5961.03,7374.60"/>
        <lane id=":-10820_0_2" index="2" speed="13.89" length="14.54" shape="5974.15,7367.60 5960.18,7371.51"/>
    </edge>
    <edge id=":-10820_3" function="internal">
        <lane id=":-10820_3_0" index="0" speed="13.89" length="3.21" shape="5974.15,7367.60 5970.95,7367.75"/>
    </edge>
    <edge id=":-10820_11" function="internal">
        <lane id=":-10820_11_0" index="0" speed="13.89" length="16.91" shape="5970.95,7367.75 5969.93,7367.79 5966.44,7365.76 5963.71,7361.50 5961.72,7355.01"/>
    </edge>
    <edge id=":-10820_4" function="internal">
        <lane id=":-10820_4_0" index="0" speed="13.89" length="9.04" shape="5964.85,7354.34 5965.71,7356.69 5967.11,7358.14 5969.05,7358.70 5971.53,7358.37"/>
    </edge>
    <edge id=":-10820_5" function="internal">
        <lane id=":-10820_5_0" index="0" speed="13.89" length="22.36" shape="5964.85,7354.34 5966.05,7362.41 5965.82,7368.48 5964.15,7372.54 5961.03,7374.60"/>