<?xml version="1.0"?>

<routes>
    <vehicle id="v0" depart="0.00" departPos="random" departSpeed="max">
        <route edges="--30354 --32716#2 --32716#1 -32198 --32130#0 --32716#1 --32716#0 -31966#12 -31966#13 --31066#8 --30892#21 --30892#20 --30560 --31966#13 --31966#12 -32716#0 -32716#1 -32130#0 --32198 --32716#0 -31966#12 -32172#0 -32172#1 -32258 --32172#7 -32476 --32650#4 --31638 --32172#5 -32038 --32650#2 --32650#1 --30352 --32172#2 --32172#1 --32172#0 --31966#12 -32716#0 -32198 --32130#0 --32716#1 --32716#0 --31966#11 --32716#2 --32716#1 --32716#0 --31966#11 -30354 --32172#8 --32172#7 -32476 -32650#5 -32650#6 -32650#0 --30352 -32172#3 -32172#4 -32038 -32650#3 -32650#4 --32476 --32172#6 -31638 --32650#3 --32650#2 --31194 --32172#3 -30352 --32650#0 -32172#1 -32172#2 -30352 -32650#1 --31194 --32172#3 -30352 --32650#0 --32650#6 --32172#8 --32258 -32172#2 -30352 --32650#0 --32650#6 --32172#8 --32172#7 --32172#6 -31638 --32650#3 --32038 -32172#5 -32172#6 -32476 --32650#4 --32650#3 --32650#2 --31194 -32172#4 -32172#5 -31638 -32650#4 -32650#5 -32650#6 -32172#1 -32172#2 -32172#3 -32172#4 -32172#5 -31638 -32650#4 --32476 --32172#6 -31638 --32650#3 --32038 --32172#4 --32172#3 --32172#2 -32258 -32172#8" repeat="2"/>
    </vehicle>
    <vehicle id="v1" depart="0.01" departPos="random" departSpeed="max">
        <route edges="--30354 --32716#2 --32716#1 -32198 --32130#0 --32716#1 --32716#0 -31966#12 -31966#13 --31066#8 --30892#21 --30892#20 --30560 --31966#13 --31966#12 -32716#0 -32716#1 -32130#0 --32198 --32716#0 -31966#12 -32172#0 -32172#1 -32258 --32172#7 -32476 --32650#4 --31638 --32172#5 -32038 --32650#2 --32650#1 --30352 --32172#2 --32172#1 --32172#0 --31966#12 -32716#0 -32198 --32130#0 --32716#1 --32716#0 --31966#11 --32716#2 --32716#1 --32716#0 --31966#11 -30354 --32172#8 --32172#7 -32476 -32650#5 -32650#6 -32650#0 --30352 -32172#3 -32172#4 -32038 -32650#3 -32650#4 --32476 --32172#6 -31638 --32650#3 --32650#2 --31194 --32172#3 -30352 --32650#0 -32172#1 -32172#2 -30352 -32650#1 --31194 --32172#3 -30352 --32650#0 --32650#6 --32172#8 --32258 -32172#2 -30352 --32650#0 --32650#6 --32172#8 --32172#7 --32172#6 -31638 --32650#3 --32038 -32172#5 -32172#6 -32476 --32650#4 --32650#3 --32650#2 --31194 -32172#4 -32172#5 -31638 -32650#4 -32650#5 -32650#6 -32172#1 -32172#2 -32172#3 -32172#4 -32172#5 -31638 -32650#4 --32476 --32172#6 -31638 --32650#3 --32038 --32172#4 --32172#3 --32172#2 -32258 -32172#8" repeat="2"/>
    </vehicle>
</routes>
