<?xml version="1.0"?>

<routes>
    <vehicle id="0.0" depart="0.00" departPos="random" departSpeed="max">
        <route edges="-32750#5 -32750#6 -32750#7 -30898 -32924#12 -32924#13 -32924#14 --32750#3 --31970 -31240#1 -32962 -32810#0 -30822#0 -30822#1 -30822#2 -30822#3 --31718#1 --31204#3 --31610#3 --31610#2 --31610#1 --32818#4 --32810#2 --32810#1 --32810#0 --30822#1 -32416" repeat="100" />
    </vehicle>
    <vehicle id="1.0" depart="0.00" departPos="random" departSpeed="max">
        <route edges="--31992#3 --31992#2 --31992#1 --31992#0 -32776#6 -31652#0 -31652#1 --32032 --32752#0 -31992#1 -30788 --31522#0 --31992#2 -30788 -31522#1 --31522#3 --31522#2 --31522#3 -30564 --31878#3 --31878#2 --31310 -31524#2 --32944 -31844#2 -31844#3 -32776#4 --31878#4 --30564 --31522#2 --31522#3 --31522#2 --31522#3 --31522#2 --31522#3 -30564 --31878#3 --31878#2 --31310 -31524#2 -31524#1 -31310 --31878#1 --31878#0 --31992#4" repeat="100" />
    </vehicle>
    <vehicle id="2.0" depart="0.00" departPos="random" departSpeed="max">
        <route edges="--31992#2 --31992#1 --31992#0 -32776#6 -31652#0 -31652#1 --32032 --32752#0 -31992#1 -30788 --31522#0 --31992#2 -30788 -31522#1 --31522#3 --31522#2 --31522#3 -30564 --31878#3 --31878#2 --31310 -31524#2 --32944 -31844#2 -31844#3 -32776#4 --31878#4 --30564 --31522#2 --31522#3 --31522#2 --31522#3 --31522#2 --31522#3 -30564 --31878#3 --31878#2 --31310 -31524#2 -31524#1 -31310 --31878#1 --31878#0 --31992#4 --31992#3 -31522#0 -31522#1 --31522#3 --31522#2 --31522#3 -30564 --31878#3 --31878#2 --31878#1 -30700#0 -30700#1 --32160#2 --32160#1 --32160#0 -30566#0 -30566#1 -30904 --30256#3 --32406#4 -31050 --31940#1 -31346 --30566#1 -32814#0 -32840 -31844#1 -31844#2 -31012 --31878#2 --31310 -31524#2 -31524#1 -31310 -31878#2 -31878#3 -31878#4 -32776#5 -32776#6 -31652#0 --32752#1 --32752#0 -31992#1 -30788 --31522#0 --31992#2 -30788 --31522#0" repeat="100" />
    </vehicle>
    <vehicle id="3.0" depart="0.00" departPos="random" departSpeed="max">
        <route edges="--31992#1 --31992#0 -32776#6 -31652#0 -31652#1 --32032 --32752#0 -31992#1 -30788 --31522#0 --31992#2 -30788 -31522#1 --31522#3 --31522#2 --31522#3 -30564 --31878#3 --31878#2 --31310 -31524#2 --32944 -31844#2 -31844#3 -32776#4 --31878#4 --30564 --31522#2 --31522#3 --31522#2 --31522#3 --31522#2 --31522#3 -30564 --31878#3 --31878#2 --31310 -31524#2 -31524#1 -31310 --31878#1 --31878#0 --31992#4 --31992#3 -31522#0 -31522#1 --31522#3 --31522#2 --31522#3 -30564 --31878#3 --31878#2 --31878#1 -30700#0 -30700#1 --32160#2 --32160#1 --32160#0 -30566#0 -30566#1 -30904 --30256#3 --32406#4 -31050 --31940#1 -31346 --30566#1 -32814#0 -32840 -31844#1 -31844#2 -31012 --31878#2 --31310 -31524#2 -31524#1 -31310 -31878#2 -31878#3 -31878#4 -32776#5 -32776#6 -31652#0 --32752#1 --32752#0 -31992#1 -30788 --31522#0 --31992#2 -30788 --31522#0 --31992#2 -30788 -31522#1 --31522#3 --31522#2 --31522#1 --30788" repeat="100" />
    </vehicle>
    <vehicle id="4.0" depart="0.00" departPos="random" departSpeed="max">
        <route edges="--31522#0 --31992#2 -30788 -31522#1 --31522#3 --31522#2 --31522#3 -30564 --31878#3 --31878#2 --31310 -31524#2 --32944 -31844#2 -31844#3 -32776#4 --31878#4 --30564 --31522#2 --31522#3 --31522#2 --31522#3 --31522#2 --31522#3 -30564 --31878#3 --31878#2 --31310 -31524#2 -31524#1 -31310 --31878#1 --31878#0 --31992#4 --31992#3 -31522#0 -31522#1 --31522#3 --31522#2 --31522#3 -30564 --31878#3 --31878#2 --31878#1 -30700#0 -30700#1 --32160#2 --32160#1 --32160#0 -30566#0 -30566#1 -30904 --30256#3 --32406#4 -31050 --31940#1 -31346 --30566#1 -32814#0 -32840 -31844#1 -31844#2 -31012 --31878#2 --31310 -31524#2 -31524#1 -31310 -31878#2 -31878#3 -31878#4 -32776#5 -32776#6 -31652#0 --32752#1 --32752#0 -31992#1 -30788 --31522#0 --31992#2 -30788 --31522#0 --31992#2 -30788 -31522#1 --31522#3 --31522#2 --31522#1" repeat="100" />
    </vehicle>
    <vehicle id="5.0" depart="0.00" departPos="random" departSpeed="max">
        <route edges="-31310 --31878#1 --31878#0 --31992#4 --31992#3 -31522#0 -31522#1 --31522#3 --31522#2 --31522#3 -30564 --31878#3 --31878#2 --31878#1 -30700#0 -30700#1 --32160#2 --32160#1 --32160#0 -30566#0 -30566#1 -30904 --30256#3 --32406#4 -31050 --31940#1 -31346 --30566#1 -32814#0 -32840 -31844#1 -31844#2 -31012 --31878#2 --31310 -31524#2 -31524#1" repeat="100" />
    </vehicle>
    <vehicle id="6.0" depart="0.00" departPos="random" departSpeed="max">
        <route edges="--30370#2 --32176#1 --32176#0 -31458#2 --30370#3 -31566 --32326#0 -30514#0 -30514#1 -32326#0 -32326#1 -30574#0 -30574#1 --32326#1 --32326#0 -30514#0 -30514#1 -32326#0 --31566 --30370#2 --32176#1 --32176#0 -31458#2 --30370#3" repeat="100" />
    </vehicle>
    <vehicle id="7.0" depart="0.00" departPos="random" departSpeed="max">
        <route edges="--31236 --30370#6 --30370#5 --30370#4 --31458#2 -32176#0 -32176#1 --30370#1 --32776#7 --32776#6 -31992#0 -32752#0 -31278 -31748#0 --31718#5 --31718#4 --31718#3 --31718#2 --30822#3 --30822#2 --30822#1 --30822#0 --32810#0 -30822#2 --30846#3 --30846#2 -31744#3 --32750#0 --30784 -30370#6 -30370#7 -31744#2 -31744#3 -32750#1 -30872#4 --32598#1 --31744#4 -32750#1 --30872#3 --30872#2 --30872#1 -31718#3 -31744#1 -31744#2 --30846#1" repeat="100" />
    </vehicle>
    <vehicle id="8.0" depart="0.00" departPos="random" departSpeed="max">
        <route edges="--30370#6 --30370#5 --30370#4 --31458#2 -32176#0 -32176#1 --30370#1 --32776#7 --32776#6 -31992#0 -32752#0 -31278 -31748#0 --31718#5 --31718#4 --31718#3 --31718#2 --30822#3 --30822#2 --30822#1 --30822#0 --32810#0 -30822#2 --30846#3 --30846#2 -31744#3 --32750#0 --30784 -30370#6 -30370#7 -31744#2 -31744#3 -32750#1 -30872#4 --32598#1 --31744#4 -32750#1 --30872#3 --30872#2 --30872#1 -31718#3 -31744#1 -31744#2 --30846#1 --31236 -30370#7 -31744#2 --30846#1 --31236" repeat="100" />
    </vehicle>
    <vehicle id="9.0" depart="0.00" departPos="random" departSpeed="max">
        <route edges="-32750#1 -32750#2 --31970 --31240#0 -30872#3 -30872#4 --32598#1 --32598#0 -31784#3 --31962#4 -30886#0 -30886#1 --31342#0 -31496#11 -31496#12 -32366#0 -32366#1 -32366#2 -31962#2 -31962#3 -31962#4 -32750#0" repeat="100" />
    </vehicle>
    <vehicle id="10.0" depart="0.00" departPos="random" departSpeed="max">
        <route edges="-30872#3 -30872#4 --32598#1 --32598#0 -31784#3 --31962#4 -30886#0 -30886#1 --31342#0 -31496#11 -31496#12 -32366#0 -32366#1 -32366#2 -31962#2 -31962#3 -31962#4 -32750#0 -32750#1 --30872#3 -31240#0 -31970 --32750#2 --32750#1 --31744#3 --30846#1 --30846#0 -32750#0 -31744#4 --32598#0 -31784#3 -32750#0 --31744#3 -30846#2 -30872#2" repeat="100" />
    </vehicle>
    <vehicle id="11.0" depart="0.00" departPos="random" departSpeed="max">
        <route edges="--32598#0 -31784#3 --31962#4 -30886#0 -30886#1 --31342#0 -31496#11 -31496#12 -32366#0 -32366#1 -32366#2 -31962#2 -31962#3 -31962#4 -32750#0 -32750#1 --30872#3 -31240#0 -31970 --32750#2 --32750#1 --31744#3 --30846#1 --30846#0 -32750#0 -31744#4 --32598#0 -31784#3 -32750#0 --31744#3 -30846#2 -30872#2 -30872#3 -30872#4 --32598#1" repeat="100" />
    </vehicle>
    <vehicle id="12.0" depart="0.00" departPos="random" departSpeed="max">
        <route edges="-32644#2 --31610#1 --31610#0 --30892#4 --30892#3 --30892#2 --30892#1 --30892#0 -30892 -30724#0 -32486#0 -31838#0 -30962#2 --30892 -32644#0 --31476 -30892#2 -30892#3 -32016" repeat="100" />
    </vehicle>
    <vehicle id="13.0" depart="0.00" departPos="random" departSpeed="max">
        <route edges="-30846#1 -31744#3 -31744#4 -31744#5 --32978#0 -30872#6 --30742#2 --32978#1 --31744#5 --32598#0 --31784#2 -30362#1 -30742#1 --32978#1 --31744#5 --32598#0 -31784#3 --31496#14 --31748#3 --31616 -31458#1 -31458#2 -30370#4 -30370#5 -30784 -30362#0 -30362#1 -30742#1 --32978#1 --32978#0 --30872#5 --30872#4 -32750#2 -32750#3 -32750#4 -32750#5 -30300#0 -30300#1 -31610#3 -31610#4 -31610#5 --31992#5 --31992#4 --31992#3 -31522#0 -31522#1 --31522#3 -30564 -31878#4 --32776#4 --31844#3 --31844#2 --31844#1 --31844#0 -30582#1 --31152#1 -31204#0 -31204#1 --30700#2 --30700#1 --30700#0 -31878#1 --31310 -31524#2 --32944 -31844#2 -31844#3 --32776#3 -31668#0 -32738 --31930#2 -32464 --31668#1 --31668#0 -32776#3 -32776#4 -32776#5 -31992#0 -32752#0 -31278 -31652#2 -31718#5 --31748#0 -31652#2 -31718#5 -31748#1 -31748#2 -31748#3 -31496#14 -30846#0" repeat="100" />
    </vehicle>
    <vehicle id="14.0" depart="0.00" departPos="random" departSpeed="max">
        <route edges="--32978#0 -30872#6 --30742#2 --32978#1 --31744#5 --32598#0 --31784#2 -30362#1 -30742#1 --32978#1 --31744#5 --32598#0 -31784#3 --31496#14 --31748#3 --31616 -31458#1 -31458#2 -30370#4 -30370#5 -30784 -30362#0 -30362#1 -30742#1 --32978#1" repeat="100" />
    </vehicle>
    <vehicle id="15.0" depart="0.00" departPos="random" departSpeed="max">
        <route edges="--32978#1 --31744#5 --32598#0 --31784#2 -30362#1 -30742#1 --32978#1 --31744#5 --32598#0 -31784#3 --31496#14 --31748#3 --31616 -31458#1 -31458#2 -30370#4 -30370#5 -30784 -30362#0 -30362#1 -30742#1" repeat="100" />
    </vehicle>
    <vehicle id="16.0" depart="0.00" departPos="random" departSpeed="max">
        <route edges="--31992#4 --31992#3 -31522#0 -31522#1 --31522#3 -30564 -31878#4 --32776#4 --31844#3 --31844#2 --31844#1 --31844#0 -30582#1 --31152#1 -31204#0 -31204#1 --30700#2 --30700#1 --30700#0 -31878#1 --31310 -31524#2 --32944 -31844#2 -31844#3 --32776#3 -31668#0 -32738 --31930#2 -32464 --31668#1 --31668#0 -32776#3 -32776#4 -32776#5 -31992#0 -32752#0 -31278 -31652#2 -31718#5 --31748#0 -31652#2 -31718#5 -31748#1 -31748#2 -31748#3 -31496#14 -30846#0 -30846#1 -30846#2 --30872#1 --30872#0" repeat="100" />
    </vehicle>
    <vehicle id="17.0" depart="0.00" departPos="random" departSpeed="max">
        <route edges="--31204#1 --32444#1 --32444#0 -30700#1 -30700#2 -31204#2 --31610#3 --31610#2 --31610#1 --31610#0 --30892#4 --30892#3 --30892#2 -31476 -32644#1 -32644#2 -31610#2 -31610#3 --31204#2" repeat="100" />
    </vehicle>
    <vehicle id="18.0" depart="0.00" departPos="random" departSpeed="max">
        <route edges="-31056#2 -31056#3 -30962#1 --31838#0 -32486#1 --31056#2 --30646#0 -31504#2 -30962#0 --31056#3 --31056#2 --31056#1 --31056#0 --32652#9 --30796 -31208#1 --31056#0 --32652#9 --30796 -31208#1 --31056#0 --32652#9 --30796 --31208#0 -31144#1 --30646#2 --30646#1" repeat="100" />
    </vehicle>
    <vehicle id="19.0" depart="0.00" departPos="random" departSpeed="max">
        <route edges="-31734 --30892#14 --30892#13 --30892#12 --30418#6 --30418#5 --30418#4 --30418#3 --30418#2 --31958 -32028#2 -30520#0 -32924#11 -32924#12 -32924#13 -32924#14 -32750#4 -32750#5 -32750#6 --32818#2 --30368 --32818#0 -32924#14 --31240#2 -32962 -30822#2 -30822#3 -31718#2 --30872#0 -31992#5 -31718#0 -31718#1 -31718#2 -30872#1 -30846#3 -30822#3 --31718#1 --31204#3 --31610#3 --31610#2 --31610#1 --31610#0 -30892#5 --32750#9 --32750#8 -30898 --32924#11 -30520#1 -32886 -30892#9 -30892#10 -30892#11 -30892#12 -30892#13 -31804 --30842#2" repeat="100" />
    </vehicle>
    <vehicle id="20.0" depart="0.00" departPos="random" departSpeed="max">
        <route edges="--30684#1 -31784#0 -31784#1 -31784#2 -31784#3 --31496#14 --31748#3 --31748#2 -30370#5 -30784 -30362#0 -30362#1 --30742#0" repeat="100" />
    </vehicle>
    <vehicle id="21.0" depart="0.00" departPos="random" departSpeed="max">
        <route edges="--32924#10 -30660 --32786#4 --32028#3 --32028#2 -31958 --30418#1 --30418#0 -30770#2 -32028#0 -32028#1 -32028#2 -30520#0" repeat="100" />
    </vehicle>
    <vehicle id="22.0" depart="0.00" departPos="random" departSpeed="max">
        <route edges="--30872#4 --30872#3 -31240#0 -31970 --32750#2 --32750#1 -31744#4 -32598#1 -30872#5 -30872#6 -30872#7 -30872#8 -32786#0 -32786#1 -32270#0 -32270#1 --31602#1 --31602#0 --30872#9 --30872#8 --30872#7 --30872#6 --30872#5" repeat="100" />
    </vehicle>
    <vehicle id="23.0" depart="0.00" departPos="random" departSpeed="max">
        <route edges="--30892#6 --32750#9 --32750#8 -30898 --32924#11 -30520#1 -32886 -30892#9 -32924#9 -32924#10 -32924#11 -32924#12 -30262#0 -32028#1 -32028#2 -30520#0 -30520#1 -32886 --30892#8 --30892#7" repeat="100" />
    </vehicle>
    <vehicle id="24.0" depart="0.00" departPos="random" departSpeed="max">
        <route edges="-31610#2 -31610#3 --31204#2 --30700#2 --32160#2 -32444#1 -31204#1 -31204#2 --31610#3 --31610#2 --31610#1 --32818#4 --32818#3 --32818#2 --32818#1 --32818#0 --32924#13 -30262#0 -32028#1 -31958 --30418#1 --30418#0 -30770#2 -30770#3 -32818#0 -30368 --32818#1 -30368 -32818#2 -32818#3 -32818#4 -31610#1" repeat="100" />
    </vehicle>
    <vehicle id="25.0" depart="0.00" departPos="random" departSpeed="max">
        <route edges="-30892#0 -30892#1 -31476 -32644#1 -32644#2 -31610#2 -31610#3 -31204#3 -31718#1 -31718#2 -30872#1 -30846#3 --30822#2 -32810#0 -30822#0 -32416 -32750#5 -30300#0 -32810#2 -32818#4 --31610#0 --30892#4 -32016 --32644#1 --31476 --30892#1 --30892#0 -32644#0 --31476 -30892#2 -30892#3 -32016 --32644#1 --32644#0" repeat="100" />
    </vehicle>
    <vehicle id="26.0" depart="0.00" departPos="random" departSpeed="max">
        <route edges="-30892#0 -30892#1 -31476 --32644#0 -30892#0 -30892#1 -30892#2 -30892#3 -32016 --32644#1 --32644#0" repeat="100" />
    </vehicle>
    <vehicle id="27.0" depart="0.00" departPos="random" departSpeed="max">
        <route edges="-31744#2 --30846#1 --30846#0 -30362#0 --31784#1 -32256 -30886#0 --32366#0 -31496#13 --31748#3 --31616 -31458#1 -32176#0 -32176#1 -30370#2 -31566 -32326#1 -30574#0 -30574#1 -30574#0 -30574#1 -30574#0 -30574#1 --32326#1 --31566 -30370#3 --31458#2 --31458#1 -31616 --31748#2 -30370#5 -30370#6 -30370#7" repeat="100" />
    </vehicle>
    <vehicle id="28.0" depart="0.00" departPos="random" departSpeed="max">
        <route edges="--31878#1 --31878#0 -31992#5 -31718#0 --31204#3 --31610#3 --31610#2 --32644#2 --32644#1 --32644#0 -30892#0 -30892#1 -31476 -32644#1 -32644#2 -31610#2 -31610#3 -31204#3 -31718#1 -31718#2 --30872#0 --31992#4 --31992#3 -31522#0 -31522#1 -31522#2 -31522#3 --31522#1 --30788 --31992#1 -32752#0 -31278 -31652#2 -31718#5 --31748#0 --31652#1 --32752#1 --32752#0 -31992#1 -31992#2 -31992#3 -31744#0 -31718#4 -31718#5 --31748#0 -31652#2 --31718#4 --31718#3 --30872#0 --31992#4 --31992#3 -31522#0 -31522#1 --31522#3 --31522#2 --31522#1 --30788 -31992#2 -31992#3 -31992#4 -31992#5 --31610#5 --31610#4 --31610#3 --31610#2 --32644#2 --32644#1 --32644#0 -30892#0 -30892#1 -31476 -32644#1 -32644#2 -31610#2 -31610#3 --31204#2 --31204#1 --31204#0 --31152#0 --32160#0 -31844#1 -30836 -31524#1 -31310" repeat="100" />
    </vehicle>
    <vehicle id="29.0" depart="0.00" departPos="random" departSpeed="max">
        <route edges="-31992#5 -31718#0 --31204#3 --31610#3 --31610#2 --32644#2 --32644#1 --32644#0 -30892#0 -30892#1 -31476 -32644#1 -32644#2 -31610#2 -31610#3 -31204#3 -31718#1 -31718#2 --30872#0 --31992#4 --31992#3 -31522#0 -31522#1 -31522#2 -31522#3 --31522#1 --30788 --31992#1 -32752#0 -31278 -31652#2 -31718#5 --31748#0 --31652#1 --32752#1 --32752#0 -31992#1 -31992#2 -31992#3 -31744#0 -31718#4 -31718#5 --31748#0 -31652#2 --31718#4 --31718#3 --30872#0 --31992#4 --31992#3 -31522#0 -31522#1 --31522#3 --31522#2 --31522#1 --30788 -31992#2 -31992#3 -31992#4" repeat="100" />
    </vehicle>
    <vehicle id="30.0" depart="0.00" departPos="random" departSpeed="max">
        <route edges="--32644#1 --32644#0 -30892#0 -30892#1 -31476 -32644#1 -32644#2 -31610#2 -31610#3 -31204#3 -31718#1 -31718#2 --30872#0 --31992#4 --31992#3 -31522#0 -31522#1 -31522#2 -31522#3 --31522#1 --30788 --31992#1 -32752#0 -31278 -31652#2 -31718#5 --31748#0 --31652#1 --32752#1 --32752#0 -31992#1 -31992#2 -31992#3 -31744#0 -31718#4 -31718#5 --31748#0 -31652#2 --31718#4 --31718#3 --30872#0 --31992#4 --31992#3 -31522#0 -31522#1 --31522#3 --31522#2 --31522#1 --30788 -31992#2 -31992#3 -31992#4 -31992#5 --31610#5 --31610#4 --31610#3 --31610#2 --32644#2 --32644#1 --32644#0 -30892#0 -30892#1 -31476 -32644#1 -32644#2 -31610#2 -31610#3 --31204#2 --31204#1 --31204#0 --31152#0 --32160#0 -31844#1 -30836 -31524#1 -31310 --31878#1 --31878#0 -30872#0 -30872#1 -30846#3 -30822#3 --31718#1 --31718#0 --31610#5 --31610#4 --31610#3 --31610#2 --32644#2" repeat="100" />
    </vehicle>
    <vehicle id="31.0" depart="0.00" departPos="random" departSpeed="max">
        <route edges="-31992#2 -31992#3 -31744#0 -31718#4 -31718#5 --31748#0 -31652#2 --31718#4 --31718#3 --30872#0 --31992#4 --31992#3 -31522#0 -31522#1 --31522#3 --31522#2 --31522#1 --30788" repeat="100" />
    </vehicle>
    <vehicle id="32.0" depart="0.00" departPos="random" departSpeed="max">
        <route edges="--31610#5 --31610#4 --31610#3 --31610#2 --32644#2 --32644#1 --32644#0 -30892#0 -30892#1 -31476 -32644#1 -32644#2 -31610#2 -31610#3 --31204#2 --31204#1 --31204#0 --31152#0 --32160#0 -31844#1 -30836 -31524#1 -31310 --31878#1 --31878#0 -30872#0 -30872#1 -30846#3 -30822#3 --31718#1 --31718#0" repeat="100" />
    </vehicle>
    <vehicle id="33.0" depart="0.00" departPos="random" departSpeed="max">
        <route edges="--31962#2 --31962#1 --31962#0 -32784#1 -31118#0 -31118#1 -31118#2 --32776#10 --32776#9 -31496#10 -31496#11 -31496#12 -32366#0 -32366#1 -32366#2 -31962#2 -30684#0 -31784#0 -32256 --31962#3" repeat="100" />
    </vehicle>
    <vehicle id="34.0" depart="0.00" departPos="random" departSpeed="max">
        <route edges="--31496#12 -31458#0 -31616 -31748#3 -31496#14 --31784#3 --31784#2 -30362#1 -30742#1 -30742#2 -30872#7 -30872#8 -30872#9 -30872#10 -30872#11 --30542#0 -32788#3 -32064#0 --30684#2 -30742#0 -30742#1 --32978#1 --31744#5 --32598#0 --31784#2 --31784#1 --31784#0 --30684#0 -31962#3 -31962#4 --31784#3 --31784#2 -30362#1 --30742#0 --30684#1 -31784#0 -32256 -30886#0 --32366#0" repeat="100" />
    </vehicle>
    <vehicle id="35.0" depart="0.00" departPos="random" departSpeed="max">
        <route edges="--32644#1 --32644#0 -30892#0 -30892#1 -31476 -32644#1 -32644#2 --31610#1 --31610#0 -30892#5 -30892#6 -30892#7 -30892#8 --32886 -30520#2 --32750#8 --32750#7 -32818#3 -32818#4 -31610#1 -31610#2 -31610#3 -31610#4 -31610#5 -31718#0 --31204#3 --31610#3 --31610#2 --32644#2" repeat="100" />
    </vehicle>
    <vehicle id="36.0" depart="0.00" departPos="random" departSpeed="max">
        <route edges="--31496#14 --31748#3 --31748#2 -30370#5 -30784 --31496#14 --31748#3 --31616 --31458#0 -31496#12 -32366#0 --30886#0 --32256 -31784#1 -31784#2 -32598#0 -32598#1 -30872#5 -32978#0 -32978#1 -30742#2 --30872#6 -32978#0 -32978#1 -30742#2 -30872#7 -30872#8 -30872#9 -31602#0 -31602#1 --32270#1 --32270#0 --32786#1 --32786#0 --30872#8 --30872#7 --30872#6 -32978#0 --31744#5 --31744#4 --32750#0" repeat="100" />
    </vehicle>
    <vehicle id="37.0" depart="0.00" departPos="random" departSpeed="max">
        <route edges="--31748#3 --31616 --31458#0 -31496#12 -32366#0 --30886#0 --32256 -31784#1 -31784#2 -32598#0 -32598#1 -30872#5 -32978#0 -32978#1 -30742#2 --30872#6 -32978#0 -32978#1 -30742#2 -30872#7 -30872#8 -30872#9 -31602#0 -31602#1 --32270#1 --32270#0 --32786#1 --32786#0 --30872#8 --30872#7 --30872#6 -32978#0 --31744#5 --31744#4 --32750#0 --31496#14" repeat="100" />
    </vehicle>
    <vehicle id="38.0" depart="0.00" departPos="random" departSpeed="max">
        <route edges="-32750#7 -30898 --32924#11 --32924#10 -30660 --32786#4 --32028#3 -30520#0 -30520#1 -30520#2 -32750#9 -32750#10 -30384#2 -30384#3 -30384#4 -30384#5 -30384#6 --31838#1 -30962#2 --30892 -30892#0 -30892#1 -31476 -32644#1 -32644#2 --31610#1 --32818#4 --32818#3" repeat="100" />
    </vehicle>
    <vehicle id="39.0" depart="0.00" departPos="random" departSpeed="max">
        <route edges="-31610#5 -31718#0 -31718#1 --30822#3 --30846#3 --30846#2 --30846#1 --31236 -30370#7 --31744#1 --31744#0 --31992#3 --31992#2 -30788 -31522#1 -31522#2 -31522#3 -31522#2 -30564 --31878#3 --31012 --31844#2 --31844#1 --31844#0 -30582#1 --31152#1 -31204#0 -31204#1 -31204#2 -31610#4" repeat="100" />
    </vehicle>
    <vehicle id="40.0" depart="0.00" departPos="random" departSpeed="max">
        <route edges="--31878#3 --31012 --31844#2 --31844#1 --31844#0 -30582#1 --31152#1 -31204#0 -31204#1 -31204#2 -31610#4 -31610#5 --31992#5 -31878#0 -30700#0 -30700#1 -32160#3 -31718#0 -31718#1 -31718#2 -31718#3 -31718#4 --31652#2 --31652#1 --31652#0 --32776#6 --32776#5 --31878#4" repeat="100" />
    </vehicle>
    <vehicle id="41.0" depart="0.00" departPos="random" departSpeed="max">
        <route edges="-31744#1 -31744#2 -30846#2 --30872#1 -31718#3 -31744#1 -31744#2 --30846#1 --30846#0 --31496#14 --31748#3 --31748#2 --31748#1 --31718#5 --31718#4" repeat="100" />
    </vehicle>
    <vehicle id="42.0" depart="0.00" departPos="random" departSpeed="max">
        <route edges="--31962#1 --31962#0 -32784#1 -32784#2 -32784#3 -31962#0 -31962#1 -31962#2 -31962#3 -30886#0 -32366#1 -32366#2 -31962#2 -30684#0 -30684#1 -30742#0 --30362#1 -31784#2 -31784#3 -30362#0 -30362#1 --30742#0 -30684#2 -32064#1 -32064#2 -32784#3 -31962#0 -31962#1 -31962#2 -30684#0 -30684#1 -30742#0 --30362#1 --30362#0 -30846#0 -30846#1 -30846#2 -30846#3 --30822#2 --30822#1 --30822#0 --32810#0 -30822#2 -30822#3 -31718#2 -31718#3 -31718#4 -31718#5 --31748#0 --32032 -32752#1 --31652#0 --32776#6 -31992#0 -31992#1 -30788 --31522#0 --31992#2 --31992#1 -32752#0 -32752#1 -31652#1 -31652#2 -31718#5 -31748#1 --30370#4 --31458#2 -32176#0 -32176#1 -30370#2 -30370#3 -30370#4 -31748#2 -31748#3 -31496#14 --31962#4 --31962#3 --31962#2 --32366#2 --32366#1 --30886#0 --31962#3 --31962#2" repeat="100" />
    </vehicle>
    <vehicle id="43.0" depart="0.00" departPos="random" departSpeed="max">
        <route edges="-32784#3 -31962#0 -31962#1 -31962#2 -31962#3 -30886#0 -32366#1 -32366#2 -31962#2 -30684#0 -30684#1 -30742#0 --30362#1 -31784#2 -31784#3 -30362#0 -30362#1 --30742#0 -30684#2 -32064#1 -32064#2" repeat="100" />
    </vehicle>
    <vehicle id="44.0" depart="0.00" departPos="random" departSpeed="max">
        <route edges="-31652#2 -31718#5 -31748#1 --30370#4 --31458#2 -32176#0 -32176#1 -30370#2 -30370#3 -30370#4 -31748#2 -31748#3 -31496#14 --31962#4 --31962#3 --31962#2 --32366#2 --32366#1 --30886#0 --31962#3 --31962#2 --32366#2 -31706#0 --31342#1 --31342#0 --31496#10 --32776#8 --32776#7 -31652#0 -31652#1" repeat="100" />
    </vehicle>
    <vehicle id="45.0" depart="0.00" departPos="random" departSpeed="max">
        <route edges="--31878#0 -31992#5 --31610#5 --31610#4 --31610#3 --31610#2 --31610#1 --31610#0 --30892#4 -32016 -32644#2 -31610#2 -31610#3 --31204#2 --30700#2 --30700#1 --30700#0" repeat="100" />
    </vehicle>
    <vehicle id="46.0" depart="0.00" departPos="random" departSpeed="max">
        <route edges="--31878#0 -31992#5 --31610#5 --31610#4 --31610#3 --31610#2 --31610#1 --31610#0 --30892#4 -32016 -32644#2 -31610#2 -31610#3 --31204#2 --30700#2 --30700#1 --30700#0" repeat="100" />
    </vehicle>
    <vehicle id="47.0" depart="0.00" departPos="random" departSpeed="max">
        <route edges="--31522#1 --31522#0 --31992#2 --31992#1 --31992#0 --32776#5 --31878#4 --30564 -31522#3 -31522#2 -31522#3" repeat="100" />
    </vehicle>
    <vehicle id="48.0" depart="0.00" departPos="random" departSpeed="max">
        <route edges="-32450 -31504#2 -30962#0 -30962#1 -31838#1 -30384#7 -31608 -32450 -31504#2 -30962#0 --31056#3 --31056#2 --31056#1 --31056#0 -31780 -31504#0 -32496" repeat="100" />
    </vehicle>
    <vehicle id="49.0" depart="0.00" departPos="random" departSpeed="max">
        <route edges="-31204#3 -31718#1 --30822#3 --30822#2 --30822#1 --30822#0 --32810#0 -30822#2 --30846#3 -30872#2 -30872#3 -32750#2 --31970 -31240#1 -32962 -30822#2 --30846#3 -30872#2 -30872#3 -30872#4 -30872#5 -32978#0 --31744#5 --32598#0 --31784#2 -30362#1 --30742#0 -30684#2 --32064#0 -32788#4 -32788#1 -32788#2 -30542#0 -30542#1 -31320#0 --30892#17 --30892#16 --30892#15 --30892#14 --30892#13 --30892#12 --30418#6 --30418#5 -32290 --32786#3 --32786#2 --32786#1 --32786#0 --30872#8 --30872#7 --30872#6 -32978#0 --31744#5 --32598#0 --31784#2 --30362#0 --31962#4 -30886#0 -30886#1 -31342#1 --31706#0 -32366#2 --31962#1 --31342#3 --31342#2 --31342#1 --31342#0 -31496#11 -31496#12 -31496#13 -31496#14 -30846#0 --31236 -30370#7 --31744#1 --31744#0 -31992#4 -31878#0 -30700#0 -30700#1 -32160#3 --31992#5 -31878#0 -31878#1 -31878#2 --31012 --31844#2 --31844#1 -32160#0 -32160#1 -32160#2 -30700#2 -31204#2" repeat="100" />
    </vehicle>
    <vehicle id="50.0" depart="0.00" departPos="random" departSpeed="max">
        <route edges="-32978#0 --31744#5 --32598#0 --31784#2 -30362#1 --30742#0 -30684#2 --32064#0 -32788#4 -32788#1 -32788#2 -30542#0 -30542#1 -31320#0 --30892#17 --30892#16 --30892#15 --30892#14 --30892#13 --30892#12 --30418#6 --30418#5 -32290 --32786#3 --32786#2 --32786#1 --32786#0 --30872#8 --30872#7 --30872#6" repeat="100" />
    </vehicle>
    <vehicle id="51.0" depart="0.00" departPos="random" departSpeed="max">
        <route edges="-31616 -31748#3 --31496#13 --31496#12 -31458#0 -31458#1 -31458#2 -30370#4 -30370#5 -30784 --31496#14 --31496#13 --31496#12 -31458#0" repeat="100" />
    </vehicle>
    <vehicle id="52.0" depart="0.00" departPos="random" departSpeed="max">
        <route edges="-30846#2 -30846#3 -30822#3 -31718#2 --30872#0 -31992#5 --31610#5 --31610#4 --31204#2 --30700#2 --30700#1 --30700#0 --31878#0 -30872#0 --31718#2 --30822#3 --30846#3 --30846#2 -31744#3 -31744#4 -31744#5 -32978#1 --30742#1 --30362#1 -31784#2 -32598#0 -32598#1 -30872#5 -30872#6 --30742#2 --30742#1 --30362#1 --30362#0 -30846#0 -30846#1" repeat="100" />
    </vehicle>
    <vehicle id="53.0" depart="0.00" departPos="random" departSpeed="max">
        <route edges="-31744#3 -31744#4 -31744#5 -32978#1 --30742#1 --30362#1 -31784#2 -32598#0 -32598#1 -30872#5 -30872#6 --30742#2 --30742#1 --30362#1 --30362#0 -30846#0 -30846#1" repeat="100" />
    </vehicle>
    <vehicle id="54.0" depart="0.00" departPos="random" departSpeed="max">
        <route edges="--32644#2 --32644#1 --31476 -30892#2 -30892#3 -30892#4 -31610#0 -31610#1 -31610#2 -31610#3 -31204#3 -31718#1 -31718#2 --30872#0 -31878#0 -31878#1 --31310 -31524#2 -31524#1 -31310 -31878#2 -31878#3 --30564 --31522#2 --31522#1 --31522#0 -31992#3 -31992#4 -30872#0 -31718#3 -31718#4 --31652#2 --31652#1 --32752#1 --32752#0 --31992#0 --32776#5 --31878#4 --31878#3 --31878#2 --31878#1 --31878#0 --31992#4 -31744#0 -31744#1 -31744#2 --30846#1 --31236 --30370#6 -30784 --31496#14 --31496#13 --31496#12 --31496#11 -31342#0 --30886#1 --30886#0 --31962#3 --31962#2 --32366#2 -31706#0 -31706#1 -32106#0 -32892#0 -32892#1 -32892#2 -31342#3 -31962#1 --32366#2 -31706#0 -31706#1 -32106#0 -32106#1 -31118#2 --32776#10 --31706#2 -32106#0 -32106#1 -31118#2 --32776#10 --31706#2 --31706#1 -31342#2 --32892#2 --32892#1 -31060 -32892#2 --31342#2 -31706#1 -31706#2 --32776#9 --32776#8 --32776#7 --32776#6 --32776#5 --31878#4 --31878#3 --31878#2 --31878#1 --31878#0 -30872#0 --31718#2 --30822#3 --30822#2 -32810#0 -32810#1 -32810#2 -32818#4 -31610#1" repeat="100" />
    </vehicle>
    <vehicle id="55.0" depart="0.00" departPos="random" departSpeed="max">
        <route edges="--30872#6 -32978#0 -32978#1 --30742#1 --30362#1 -31784#2 -31784#3 -30846#0 -30846#1 -31744#3 -32750#1 -30872#4 -30872#5 -30872#6 -30872#7 -30872#8 -32786#0 -32786#1 -32270#0 -32270#1 -32270#2 -32270#3 --30892#15 --31734 --30842#1 --30842#0 -31564#1 --31602#0 --30872#9 --30872#8 --30872#7" repeat="100" />
    </vehicle>
    <vehicle id="56.0" depart="0.00" departPos="random" departSpeed="max">
        <route edges="-30846#2 --30872#1 --30872#0 -31878#0 -31878#1 --31310 -31524#2 -31524#1 -31310 --31878#1 --31878#0 --31992#4 --31992#3 --31992#2 --31992#1 -32752#0 -31278 -31652#2 --31718#4 --31744#0 --31992#3 -31522#0 --30788 --31992#1 --31992#0 --32776#5 --32776#4 --31844#3 --31844#2 -30836 -31524#1 -31310 --31878#1 --31878#0 -30872#0 --31718#2 --31718#1 --31204#3 -31610#4 -31610#5 --32160#3 --30700#1 --30700#0 --31878#0 --31992#4 -31744#0 -31744#1 --30370#7 --30370#6 -30784 -30362#0 -30362#1 -30742#1 --32978#1 --31744#5 --31744#4 --31744#3" repeat="100" />
    </vehicle>
    <vehicle id="57.0" depart="0.00" departPos="random" departSpeed="max">
        <route edges="-31992#4 -31992#5 --31610#5 --31610#4 --31204#2 --30700#2 --30700#1 --30700#0 -31878#1 --31310 -31524#2 -31524#1 -31524#2 --32944 -31844#2 -31012 -31878#3 -31878#4 -32776#5 -32776#6 -31652#0 --32752#1 --32752#0 -31992#1 -30788 --31522#0 -31992#3" repeat="100" />
    </vehicle>
    <vehicle id="58.0" depart="0.00" departPos="random" departSpeed="max">
        <route edges="--32406#0 -32564#1 -31212 --32406#0 -32564#1 -32564#2 --31940#3 -31256 -32406#3 -31050 -31940#2 -31940#3 --32564#2 -31212 -32406#1 -32406#2 -32406#3 -31050 --31940#1 --31940#0 --30256#3 --32406#4 --32406#3 --32406#2 --32406#1" repeat="100" />
    </vehicle>
    <vehicle id="59.0" depart="0.00" departPos="random" departSpeed="max">
        <route edges="--32064#0 -32788#4 -32788#1 -32788#2 -32788#3 -32064#0 -32064#1 -32064#2 -32784#3 -32784#1 -32784#2 -32784#3 -31962#0 --31342#3 --32892#2 --31060 --32892#0 --32106#0 --31706#1 -31342#2 --32892#2 --31060 -32892#1 --31060 -32892#1 --31060 -32892#1 -32892#2 -31342#3 -31962#1 -31962#2 -30684#0 -30684#1 -30684#2" repeat="100" />
    </vehicle>
    <vehicle id="60.0" depart="0.00" departPos="random" departSpeed="max">
        <route edges="-31844#2 -31844#3 -32776#4 --31878#4 --30564 -31522#3 -31522#2 -31522#3 --31522#1 --30788 -31992#2 -31522#0 -31522#1 --31522#3 -30564 --31878#3 --31878#2 --31310 -31524#2 --32944 -31844#2 -31012 --31878#2 --31310 -31524#2 --32944" repeat="100" />
    </vehicle>
    <vehicle id="61.0" depart="0.00" departPos="random" departSpeed="max">
        <route edges="--30788 -31992#2 -31522#0 -31522#1 --31522#3 -30564 --31878#3 --31878#2 --31310 -31524#2 --32944 -31844#2 -31012 --31878#2 --31310 -31524#2 --32944 -31844#2 -31012 -31878#3 --30564 --31522#2 --31522#3 --31522#2 --31522#1" repeat="100" />
    </vehicle>
    <vehicle id="62.0" depart="0.00" departPos="random" departSpeed="max">